* NGSPICE file created from cbx_1__1_.ext - technology: EFS8A

* Black-box entry subcircuit for scs8hd_decap_12 abstract view
.subckt scs8hd_decap_12 vgnd vpwr
.ends

* Black-box entry subcircuit for scs8hd_fill_2 abstract view
.subckt scs8hd_fill_2 vpwr vgnd
.ends

* Black-box entry subcircuit for scs8hd_buf_2 abstract view
.subckt scs8hd_buf_2 A X vgnd vpwr
.ends

* Black-box entry subcircuit for scs8hd_lpflow_inputisolatch_1 abstract view
.subckt scs8hd_lpflow_inputisolatch_1 D Q SLEEPB vgnd vpwr
.ends

* Black-box entry subcircuit for scs8hd_decap_4 abstract view
.subckt scs8hd_decap_4 vgnd vpwr
.ends

* Black-box entry subcircuit for scs8hd_conb_1 abstract view
.subckt scs8hd_conb_1 HI LO vgnd vpwr
.ends

* Black-box entry subcircuit for scs8hd_diode_2 abstract view
.subckt scs8hd_diode_2 DIODE vgnd vpwr
.ends

* Black-box entry subcircuit for scs8hd_fill_1 abstract view
.subckt scs8hd_fill_1 vgnd vpwr
.ends

* Black-box entry subcircuit for scs8hd_nor4_4 abstract view
.subckt scs8hd_nor4_4 A B C D Y vgnd vpwr
.ends

* Black-box entry subcircuit for scs8hd_ebufn_2 abstract view
.subckt scs8hd_ebufn_2 A TEB Z vgnd vpwr
.ends

* Black-box entry subcircuit for scs8hd_inv_1 abstract view
.subckt scs8hd_inv_1 A Y vgnd vpwr
.ends

* Black-box entry subcircuit for scs8hd_decap_8 abstract view
.subckt scs8hd_decap_8 vgnd vpwr
.ends

* Black-box entry subcircuit for scs8hd_decap_3 abstract view
.subckt scs8hd_decap_3 vgnd vpwr
.ends

* Black-box entry subcircuit for scs8hd_decap_6 abstract view
.subckt scs8hd_decap_6 vgnd vpwr
.ends

* Black-box entry subcircuit for scs8hd_tapvpwrvgnd_1 abstract view
.subckt scs8hd_tapvpwrvgnd_1 vgnd vpwr
.ends

* Black-box entry subcircuit for scs8hd_inv_8 abstract view
.subckt scs8hd_inv_8 A Y vgnd vpwr
.ends

* Black-box entry subcircuit for scs8hd_or4_4 abstract view
.subckt scs8hd_or4_4 A B C D X vgnd vpwr
.ends

* Black-box entry subcircuit for scs8hd_or2_4 abstract view
.subckt scs8hd_or2_4 A B X vgnd vpwr
.ends

.subckt cbx_1__1_ address[0] address[1] address[2] address[3] address[4] address[5]
+ bottom_grid_pin_0_ bottom_grid_pin_4_ bottom_grid_pin_8_ chanx_left_in[0] chanx_left_in[1]
+ chanx_left_in[2] chanx_left_in[3] chanx_left_in[4] chanx_left_in[5] chanx_left_in[6]
+ chanx_left_in[7] chanx_left_in[8] chanx_left_out[0] chanx_left_out[1] chanx_left_out[2]
+ chanx_left_out[3] chanx_left_out[4] chanx_left_out[5] chanx_left_out[6] chanx_left_out[7]
+ chanx_left_out[8] chanx_right_in[0] chanx_right_in[1] chanx_right_in[2] chanx_right_in[3]
+ chanx_right_in[4] chanx_right_in[5] chanx_right_in[6] chanx_right_in[7] chanx_right_in[8]
+ chanx_right_out[0] chanx_right_out[1] chanx_right_out[2] chanx_right_out[3] chanx_right_out[4]
+ chanx_right_out[5] chanx_right_out[6] chanx_right_out[7] chanx_right_out[8] data_in
+ enable top_grid_pin_14_ top_grid_pin_2_ top_grid_pin_6_ vpwr vgnd
XFILLER_22_166 vgnd vpwr scs8hd_decap_12
XFILLER_7_7 vpwr vgnd scs8hd_fill_2
X_83_ chanx_left_in[6] chanx_right_out[6] vgnd vpwr scs8hd_buf_2
XFILLER_13_111 vpwr vgnd scs8hd_fill_2
XFILLER_13_100 vpwr vgnd scs8hd_fill_2
XFILLER_9_159 vpwr vgnd scs8hd_fill_2
XFILLER_9_126 vpwr vgnd scs8hd_fill_2
XFILLER_3_89 vpwr vgnd scs8hd_fill_2
Xmem_bottom_ipin_2.LATCH_1_.latch data_in mem_bottom_ipin_2.LATCH_1_.latch/Q _50_/Y
+ vgnd vpwr scs8hd_lpflow_inputisolatch_1
XFILLER_8_192 vgnd vpwr scs8hd_decap_4
XFILLER_12_32 vgnd vpwr scs8hd_decap_12
XFILLER_10_169 vpwr vgnd scs8hd_fill_2
XFILLER_10_125 vpwr vgnd scs8hd_fill_2
X_66_ _66_/HI _66_/LO vgnd vpwr scs8hd_conb_1
XFILLER_5_173 vgnd vpwr scs8hd_decap_4
XFILLER_23_86 vgnd vpwr scs8hd_decap_12
XFILLER_23_31 vgnd vpwr scs8hd_decap_12
XANTENNA_mux_bottom_ipin_1.mux_l1_in_0_.TGATE_1_.scs8hd_ebufn_2_TEB _32_/Y vgnd vpwr
+ scs8hd_diode_2
XANTENNA_mem_top_ipin_0.LATCH_3_.latch_D data_in vgnd vpwr scs8hd_diode_2
XFILLER_9_66 vgnd vpwr scs8hd_fill_1
XFILLER_9_11 vpwr vgnd scs8hd_fill_2
XFILLER_0_35 vpwr vgnd scs8hd_fill_2
X_49_ _24_/Y address[2] address[0] _50_/D _49_/Y vgnd vpwr scs8hd_nor4_4
XANTENNA_mem_top_ipin_1.LATCH_1_.latch_D data_in vgnd vpwr scs8hd_diode_2
XFILLER_20_32 vgnd vpwr scs8hd_decap_12
Xmux_top_ipin_0.mux_l1_in_1_.TGATE_0_.scs8hd_ebufn_2 mux_top_ipin_0.INVTX1_3_.scs8hd_inv_1/Y
+ mem_top_ipin_0.LATCH_0_.latch/Q mux_top_ipin_0.mux_l1_in_1_.TGATE_1_.scs8hd_ebufn_2/Z
+ vgnd vpwr scs8hd_ebufn_2
XANTENNA_mux_top_ipin_2.INVTX1_1_.scs8hd_inv_1_A chanx_right_in[5] vgnd vpwr scs8hd_diode_2
XFILLER_13_3 vgnd vpwr scs8hd_decap_12
XANTENNA_mux_top_ipin_0.mux_l1_in_0_.TGATE_2_.scs8hd_ebufn_2_A mux_top_ipin_0.INVTX1_2_.scs8hd_inv_1/Y
+ vgnd vpwr scs8hd_diode_2
Xmux_bottom_ipin_0.mux_l2_in_0_.TGATE_2_.scs8hd_ebufn_2 _66_/HI mem_bottom_ipin_0.LATCH_5_.latch/Q
+ mux_bottom_ipin_0.tap_buf4_0_.scs8hd_inv_1/A vgnd vpwr scs8hd_ebufn_2
Xmux_bottom_ipin_0.INVTX1_3_.scs8hd_inv_1 chanx_right_in[4] mux_bottom_ipin_0.INVTX1_3_.scs8hd_inv_1/Y
+ vgnd vpwr scs8hd_inv_1
XFILLER_1_208 vpwr vgnd scs8hd_fill_2
XFILLER_31_156 vgnd vpwr scs8hd_decap_12
XFILLER_31_75 vgnd vpwr scs8hd_decap_12
XFILLER_16_120 vgnd vpwr scs8hd_decap_12
XFILLER_22_178 vgnd vpwr scs8hd_decap_12
XFILLER_13_145 vgnd vpwr scs8hd_decap_12
XANTENNA_mux_top_ipin_0.mux_l2_in_0_.TGATE_0_.scs8hd_ebufn_2_A mux_top_ipin_0.mux_l1_in_0_.TGATE_2_.scs8hd_ebufn_2/Z
+ vgnd vpwr scs8hd_diode_2
XFILLER_9_116 vpwr vgnd scs8hd_fill_2
XFILLER_9_105 vpwr vgnd scs8hd_fill_2
XFILLER_3_57 vpwr vgnd scs8hd_fill_2
XFILLER_3_68 vpwr vgnd scs8hd_fill_2
X_82_ chanx_left_in[7] chanx_right_out[7] vgnd vpwr scs8hd_buf_2
XANTENNA_mux_bottom_ipin_1.mux_l1_in_0_.TGATE_1_.scs8hd_ebufn_2_A mux_bottom_ipin_1.INVTX1_1_.scs8hd_inv_1/Y
+ vgnd vpwr scs8hd_diode_2
XFILLER_8_171 vpwr vgnd scs8hd_fill_2
XFILLER_12_55 vpwr vgnd scs8hd_fill_2
XFILLER_12_44 vpwr vgnd scs8hd_fill_2
XFILLER_10_104 vpwr vgnd scs8hd_fill_2
X_65_ _27_/Y address[4] _61_/C address[0] _65_/Y vgnd vpwr scs8hd_nor4_4
XFILLER_23_43 vgnd vpwr scs8hd_decap_12
Xmux_top_ipin_0.tap_buf4_0_.scs8hd_inv_1 mux_top_ipin_0.tap_buf4_0_.scs8hd_inv_1/A
+ bottom_grid_pin_0_ vgnd vpwr scs8hd_inv_1
XFILLER_23_98 vgnd vpwr scs8hd_decap_12
XFILLER_9_23 vpwr vgnd scs8hd_fill_2
XFILLER_0_58 vpwr vgnd scs8hd_fill_2
XFILLER_2_144 vpwr vgnd scs8hd_fill_2
XFILLER_2_199 vpwr vgnd scs8hd_fill_2
X_48_ _24_/Y address[2] _50_/C _50_/D _48_/Y vgnd vpwr scs8hd_nor4_4
XFILLER_18_32 vgnd vpwr scs8hd_decap_12
XFILLER_20_44 vgnd vpwr scs8hd_decap_12
XFILLER_19_184 vgnd vpwr scs8hd_decap_8
XFILLER_6_46 vgnd vpwr scs8hd_decap_3
XFILLER_6_24 vgnd vpwr scs8hd_fill_1
XFILLER_25_110 vgnd vpwr scs8hd_decap_12
XANTENNA_mem_bottom_ipin_0.LATCH_5_.latch_D data_in vgnd vpwr scs8hd_diode_2
XFILLER_31_168 vgnd vpwr scs8hd_decap_12
XFILLER_31_87 vgnd vpwr scs8hd_decap_6
XFILLER_31_32 vgnd vpwr scs8hd_decap_12
XPHY_160 vgnd vpwr scs8hd_tapvpwrvgnd_1
XFILLER_16_154 vgnd vpwr scs8hd_decap_12
XFILLER_16_132 vgnd vpwr scs8hd_decap_12
XFILLER_15_99 vpwr vgnd scs8hd_fill_2
XFILLER_15_88 vgnd vpwr scs8hd_decap_4
XFILLER_30_190 vgnd vpwr scs8hd_decap_12
XANTENNA_mem_bottom_ipin_2.LATCH_1_.latch_D data_in vgnd vpwr scs8hd_diode_2
XFILLER_26_32 vgnd vpwr scs8hd_decap_12
Xmem_top_ipin_0.LATCH_4_.latch data_in mem_top_ipin_0.LATCH_4_.latch/Q _55_/Y vgnd
+ vpwr scs8hd_lpflow_inputisolatch_1
X_81_ chanx_left_in[8] chanx_right_out[8] vgnd vpwr scs8hd_buf_2
XFILLER_3_36 vpwr vgnd scs8hd_fill_2
Xmux_bottom_ipin_2.mux_l1_in_0_.TGATE_2_.scs8hd_ebufn_2 mux_bottom_ipin_2.INVTX1_2_.scs8hd_inv_1/Y
+ mem_bottom_ipin_2.LATCH_2_.latch/Q mux_bottom_ipin_2.mux_l1_in_0_.TGATE_1_.scs8hd_ebufn_2/Z
+ vgnd vpwr scs8hd_ebufn_2
XFILLER_12_78 vpwr vgnd scs8hd_fill_2
X_64_ _27_/Y address[4] _61_/C _50_/C _64_/Y vgnd vpwr scs8hd_nor4_4
XANTENNA_mux_top_ipin_1.mux_l2_in_0_.TGATE_1_.scs8hd_ebufn_2_TEB _33_/Y vgnd vpwr
+ scs8hd_diode_2
XFILLER_5_197 vgnd vpwr scs8hd_decap_4
XFILLER_23_55 vgnd vpwr scs8hd_decap_6
XFILLER_2_123 vgnd vpwr scs8hd_decap_3
XFILLER_2_167 vpwr vgnd scs8hd_fill_2
XFILLER_3_3 vgnd vpwr scs8hd_decap_3
XFILLER_20_211 vgnd vpwr scs8hd_fill_1
XFILLER_9_57 vpwr vgnd scs8hd_fill_2
X_47_ address[1] _55_/B address[0] _50_/D _47_/Y vgnd vpwr scs8hd_nor4_4
XFILLER_18_44 vgnd vpwr scs8hd_decap_12
XANTENNA_mux_top_ipin_0.mux_l1_in_1_.TGATE_0_.scs8hd_ebufn_2_A mux_top_ipin_0.INVTX1_3_.scs8hd_inv_1/Y
+ vgnd vpwr scs8hd_diode_2
XFILLER_7_204 vpwr vgnd scs8hd_fill_2
Xmem_bottom_ipin_0.LATCH_4_.latch data_in mem_bottom_ipin_0.LATCH_4_.latch/Q _40_/Y
+ vgnd vpwr scs8hd_lpflow_inputisolatch_1
XFILLER_20_56 vgnd vpwr scs8hd_decap_12
XFILLER_28_141 vgnd vpwr scs8hd_decap_12
Xmem_top_ipin_1.LATCH_0_.latch data_in _34_/A _63_/Y vgnd vpwr scs8hd_lpflow_inputisolatch_1
XFILLER_31_44 vgnd vpwr scs8hd_decap_12
XFILLER_16_166 vgnd vpwr scs8hd_decap_12
XFILLER_16_144 vgnd vpwr scs8hd_decap_8
XFILLER_31_125 vgnd vpwr scs8hd_decap_12
XPHY_161 vgnd vpwr scs8hd_tapvpwrvgnd_1
XPHY_150 vgnd vpwr scs8hd_tapvpwrvgnd_1
XFILLER_16_199 vgnd vpwr scs8hd_decap_12
XFILLER_26_44 vgnd vpwr scs8hd_decap_12
XFILLER_13_136 vgnd vpwr scs8hd_decap_6
X_80_ chanx_right_in[0] chanx_left_out[0] vgnd vpwr scs8hd_buf_2
XANTENNA_mux_top_ipin_1.mux_l2_in_0_.TGATE_0_.scs8hd_ebufn_2_A mux_top_ipin_1.mux_l1_in_0_.TGATE_1_.scs8hd_ebufn_2/Z
+ vgnd vpwr scs8hd_diode_2
XFILLER_3_15 vpwr vgnd scs8hd_fill_2
XANTENNA_mux_bottom_ipin_2.mux_l1_in_0_.TGATE_1_.scs8hd_ebufn_2_A mux_bottom_ipin_2.INVTX1_1_.scs8hd_inv_1/Y
+ vgnd vpwr scs8hd_diode_2
Xmem_bottom_ipin_1.LATCH_0_.latch data_in _32_/A _61_/Y vgnd vpwr scs8hd_lpflow_inputisolatch_1
XFILLER_5_154 vpwr vgnd scs8hd_fill_2
X_63_ _27_/Y address[4] _37_/X address[0] _63_/Y vgnd vpwr scs8hd_nor4_4
XFILLER_4_80 vgnd vpwr scs8hd_fill_1
XFILLER_15_209 vgnd vpwr scs8hd_decap_3
XFILLER_0_27 vpwr vgnd scs8hd_fill_2
XFILLER_2_102 vgnd vpwr scs8hd_fill_1
XFILLER_9_36 vpwr vgnd scs8hd_fill_2
X_46_ address[1] _55_/B _50_/C _50_/D _46_/Y vgnd vpwr scs8hd_nor4_4
XFILLER_18_56 vgnd vpwr scs8hd_decap_12
Xmux_bottom_ipin_2.INVTX1_0_.scs8hd_inv_1 chanx_left_in[1] mux_bottom_ipin_2.INVTX1_0_.scs8hd_inv_1/Y
+ vgnd vpwr scs8hd_inv_1
Xmux_top_ipin_2.mux_l2_in_0_.TGATE_0_.scs8hd_ebufn_2 mux_top_ipin_2.mux_l1_in_0_.TGATE_0_.scs8hd_ebufn_2/Z
+ _35_/A mux_top_ipin_2.tap_buf4_0_.scs8hd_inv_1/A vgnd vpwr scs8hd_ebufn_2
Xmux_top_ipin_1.INVTX1_0_.scs8hd_inv_1 chanx_left_in[4] mux_top_ipin_1.INVTX1_0_.scs8hd_inv_1/Y
+ vgnd vpwr scs8hd_inv_1
X_29_ address[3] _52_/A vgnd vpwr scs8hd_inv_8
XFILLER_29_77 vgnd vpwr scs8hd_decap_12
XFILLER_29_44 vgnd vpwr scs8hd_decap_12
XFILLER_29_11 vgnd vpwr scs8hd_decap_12
XFILLER_20_68 vgnd vpwr scs8hd_decap_12
XFILLER_19_197 vgnd vpwr scs8hd_decap_12
XFILLER_31_56 vgnd vpwr scs8hd_decap_6
XFILLER_25_123 vgnd vpwr scs8hd_decap_12
XFILLER_0_200 vpwr vgnd scs8hd_fill_2
XFILLER_31_137 vgnd vpwr scs8hd_decap_12
XPHY_162 vgnd vpwr scs8hd_tapvpwrvgnd_1
XPHY_151 vgnd vpwr scs8hd_tapvpwrvgnd_1
XPHY_140 vgnd vpwr scs8hd_tapvpwrvgnd_1
XFILLER_16_178 vgnd vpwr scs8hd_decap_12
XFILLER_11_3 vpwr vgnd scs8hd_fill_2
XFILLER_26_56 vgnd vpwr scs8hd_decap_12
XFILLER_13_115 vgnd vpwr scs8hd_decap_4
XFILLER_13_104 vgnd vpwr scs8hd_decap_3
XANTENNA_mux_bottom_ipin_1.mux_l2_in_0_.TGATE_1_.scs8hd_ebufn_2_TEB _31_/Y vgnd vpwr
+ scs8hd_diode_2
XFILLER_3_49 vpwr vgnd scs8hd_fill_2
XFILLER_10_129 vpwr vgnd scs8hd_fill_2
XFILLER_8_141 vpwr vgnd scs8hd_fill_2
XANTENNA_mem_bottom_ipin_2.LATCH_4_.latch_SLEEPB _47_/Y vgnd vpwr scs8hd_diode_2
XFILLER_5_100 vpwr vgnd scs8hd_fill_2
XFILLER_5_133 vpwr vgnd scs8hd_fill_2
X_62_ _27_/Y address[4] _37_/X _50_/C _62_/Y vgnd vpwr scs8hd_nor4_4
XFILLER_14_210 vpwr vgnd scs8hd_fill_2
XFILLER_9_15 vpwr vgnd scs8hd_fill_2
XFILLER_0_39 vpwr vgnd scs8hd_fill_2
XFILLER_18_68 vgnd vpwr scs8hd_decap_12
X_45_ address[3] _45_/B address[5] _45_/D _50_/D vgnd vpwr scs8hd_or4_4
XANTENNA_mux_top_ipin_1.INVTX1_0_.scs8hd_inv_1_A chanx_left_in[4] vgnd vpwr scs8hd_diode_2
X_28_ address[4] _45_/D vgnd vpwr scs8hd_inv_8
XANTENNA_mux_bottom_ipin_0.mux_l2_in_0_.TGATE_2_.scs8hd_ebufn_2_A _66_/HI vgnd vpwr
+ scs8hd_diode_2
XFILLER_29_89 vgnd vpwr scs8hd_decap_12
XFILLER_29_56 vgnd vpwr scs8hd_decap_4
XFILLER_29_23 vgnd vpwr scs8hd_decap_12
XFILLER_28_154 vgnd vpwr scs8hd_decap_12
XANTENNA_mem_top_ipin_1.LATCH_1_.latch_SLEEPB _62_/Y vgnd vpwr scs8hd_diode_2
Xmux_bottom_ipin_0.INVTX1_0_.scs8hd_inv_1 chanx_left_in[0] mux_bottom_ipin_0.INVTX1_0_.scs8hd_inv_1/Y
+ vgnd vpwr scs8hd_inv_1
XFILLER_19_110 vgnd vpwr scs8hd_decap_12
XFILLER_6_27 vpwr vgnd scs8hd_fill_2
XANTENNA_mem_bottom_ipin_0.LATCH_5_.latch_SLEEPB _39_/Y vgnd vpwr scs8hd_diode_2
XFILLER_25_135 vgnd vpwr scs8hd_decap_12
XFILLER_31_149 vgnd vpwr scs8hd_decap_6
XPHY_163 vgnd vpwr scs8hd_tapvpwrvgnd_1
XPHY_152 vgnd vpwr scs8hd_tapvpwrvgnd_1
XFILLER_24_190 vgnd vpwr scs8hd_decap_12
XPHY_141 vgnd vpwr scs8hd_tapvpwrvgnd_1
XPHY_130 vgnd vpwr scs8hd_tapvpwrvgnd_1
XFILLER_22_105 vgnd vpwr scs8hd_decap_12
Xmux_top_ipin_0.INVTX1_4_.scs8hd_inv_1 chanx_left_in[7] mux_top_ipin_0.INVTX1_4_.scs8hd_inv_1/Y
+ vgnd vpwr scs8hd_inv_1
XANTENNA_mux_top_ipin_0.tap_buf4_0_.scs8hd_inv_1_A mux_top_ipin_0.tap_buf4_0_.scs8hd_inv_1/A
+ vgnd vpwr scs8hd_diode_2
XFILLER_26_68 vgnd vpwr scs8hd_decap_12
XFILLER_21_171 vgnd vpwr scs8hd_decap_12
XANTENNA__31__A _31_/A vgnd vpwr scs8hd_diode_2
XFILLER_9_109 vgnd vpwr scs8hd_decap_4
XFILLER_27_208 vgnd vpwr scs8hd_decap_4
XFILLER_8_175 vpwr vgnd scs8hd_fill_2
XANTENNA_mux_top_ipin_2.mux_l2_in_0_.TGATE_0_.scs8hd_ebufn_2_A mux_top_ipin_2.mux_l1_in_0_.TGATE_0_.scs8hd_ebufn_2/Z
+ vgnd vpwr scs8hd_diode_2
Xmux_top_ipin_1.mux_l2_in_0_.TGATE_0_.scs8hd_ebufn_2 mux_top_ipin_1.mux_l1_in_0_.TGATE_1_.scs8hd_ebufn_2/Z
+ _33_/A mux_top_ipin_1.tap_buf4_0_.scs8hd_inv_1/A vgnd vpwr scs8hd_ebufn_2
XFILLER_12_59 vpwr vgnd scs8hd_fill_2
XFILLER_10_108 vgnd vpwr scs8hd_decap_4
XANTENNA__26__A address[0] vgnd vpwr scs8hd_diode_2
X_61_ address[5] address[4] _61_/C address[0] _61_/Y vgnd vpwr scs8hd_nor4_4
XFILLER_5_112 vpwr vgnd scs8hd_fill_2
XFILLER_2_148 vpwr vgnd scs8hd_fill_2
Xmux_bottom_ipin_0.mux_l1_in_0_.TGATE_2_.scs8hd_ebufn_2 mux_bottom_ipin_0.INVTX1_2_.scs8hd_inv_1/Y
+ mem_bottom_ipin_0.LATCH_2_.latch/Q mux_bottom_ipin_0.mux_l1_in_0_.TGATE_1_.scs8hd_ebufn_2/Z
+ vgnd vpwr scs8hd_ebufn_2
X_44_ address[1] address[2] address[0] _41_/D _44_/Y vgnd vpwr scs8hd_nor4_4
XFILLER_1_3 vgnd vpwr scs8hd_decap_3
X_27_ address[5] _27_/Y vgnd vpwr scs8hd_inv_8
XANTENNA_mem_bottom_ipin_2.LATCH_4_.latch_D data_in vgnd vpwr scs8hd_diode_2
XFILLER_29_68 vgnd vpwr scs8hd_fill_1
XFILLER_29_35 vgnd vpwr scs8hd_fill_1
XFILLER_28_166 vgnd vpwr scs8hd_decap_12
XFILLER_20_15 vgnd vpwr scs8hd_decap_12
XANTENNA__34__A _34_/A vgnd vpwr scs8hd_diode_2
XFILLER_25_147 vgnd vpwr scs8hd_decap_12
XFILLER_15_15 vgnd vpwr scs8hd_decap_12
XANTENNA_mux_bottom_ipin_2.INVTX1_5_.scs8hd_inv_1_A chanx_right_in[6] vgnd vpwr scs8hd_diode_2
XPHY_164 vgnd vpwr scs8hd_tapvpwrvgnd_1
XFILLER_31_106 vgnd vpwr scs8hd_decap_12
XPHY_153 vgnd vpwr scs8hd_tapvpwrvgnd_1
XPHY_142 vgnd vpwr scs8hd_tapvpwrvgnd_1
XPHY_131 vgnd vpwr scs8hd_tapvpwrvgnd_1
XPHY_120 vgnd vpwr scs8hd_tapvpwrvgnd_1
XANTENNA__29__A address[3] vgnd vpwr scs8hd_diode_2
XFILLER_22_117 vgnd vpwr scs8hd_decap_12
XFILLER_7_93 vpwr vgnd scs8hd_fill_2
XFILLER_7_71 vpwr vgnd scs8hd_fill_2
XPHY_0 vgnd vpwr scs8hd_decap_3
XFILLER_16_80 vgnd vpwr scs8hd_decap_12
XFILLER_12_194 vgnd vpwr scs8hd_fill_1
XANTENNA_mux_bottom_ipin_0.mux_l1_in_1_.TGATE_2_.scs8hd_ebufn_2_A mux_bottom_ipin_0.INVTX1_5_.scs8hd_inv_1/Y
+ vgnd vpwr scs8hd_diode_2
XFILLER_8_110 vpwr vgnd scs8hd_fill_2
X_60_ address[5] address[4] _61_/C _50_/C _60_/Y vgnd vpwr scs8hd_nor4_4
XANTENNA__42__A _24_/Y vgnd vpwr scs8hd_diode_2
XFILLER_5_179 vpwr vgnd scs8hd_fill_2
XFILLER_4_72 vpwr vgnd scs8hd_fill_2
XANTENNA__37__A address[3] vgnd vpwr scs8hd_diode_2
XFILLER_2_105 vgnd vpwr scs8hd_fill_1
XFILLER_1_193 vpwr vgnd scs8hd_fill_2
X_43_ address[1] address[2] _50_/C _41_/D _43_/Y vgnd vpwr scs8hd_nor4_4
XFILLER_18_15 vgnd vpwr scs8hd_decap_12
XFILLER_11_204 vpwr vgnd scs8hd_fill_2
Xmem_bottom_ipin_2.LATCH_2_.latch data_in mem_bottom_ipin_2.LATCH_2_.latch/Q _49_/Y
+ vgnd vpwr scs8hd_lpflow_inputisolatch_1
XFILLER_7_208 vgnd vpwr scs8hd_decap_4
XFILLER_27_3 vgnd vpwr scs8hd_decap_12
XFILLER_24_80 vgnd vpwr scs8hd_decap_12
XANTENNA_mux_top_ipin_0.mux_l1_in_0_.TGATE_0_.scs8hd_ebufn_2_TEB mem_top_ipin_0.LATCH_0_.latch/Q
+ vgnd vpwr scs8hd_diode_2
XANTENNA_mux_top_ipin_0.INVTX1_4_.scs8hd_inv_1_A chanx_left_in[7] vgnd vpwr scs8hd_diode_2
XFILLER_20_27 vgnd vpwr scs8hd_decap_4
X_26_ address[0] _50_/C vgnd vpwr scs8hd_inv_8
XANTENNA_mux_bottom_ipin_0.INVTX1_2_.scs8hd_inv_1_A chanx_left_in[4] vgnd vpwr scs8hd_diode_2
XFILLER_1_95 vpwr vgnd scs8hd_fill_2
XFILLER_1_73 vgnd vpwr scs8hd_decap_3
XFILLER_28_178 vgnd vpwr scs8hd_decap_12
XFILLER_19_123 vgnd vpwr scs8hd_decap_12
Xmux_top_ipin_0.mux_l2_in_0_.TGATE_0_.scs8hd_ebufn_2 mux_top_ipin_0.mux_l1_in_0_.TGATE_2_.scs8hd_ebufn_2/Z
+ mem_top_ipin_0.LATCH_3_.latch/Q mux_top_ipin_0.tap_buf4_0_.scs8hd_inv_1/A vgnd vpwr
+ scs8hd_ebufn_2
XFILLER_10_71 vpwr vgnd scs8hd_fill_2
XANTENNA__50__A address[1] vgnd vpwr scs8hd_diode_2
XFILLER_25_159 vgnd vpwr scs8hd_decap_12
XFILLER_15_27 vgnd vpwr scs8hd_decap_12
XPHY_165 vgnd vpwr scs8hd_tapvpwrvgnd_1
XFILLER_31_118 vgnd vpwr scs8hd_decap_6
XFILLER_31_15 vgnd vpwr scs8hd_decap_12
XPHY_154 vgnd vpwr scs8hd_tapvpwrvgnd_1
XPHY_143 vgnd vpwr scs8hd_tapvpwrvgnd_1
XPHY_132 vgnd vpwr scs8hd_tapvpwrvgnd_1
XPHY_121 vgnd vpwr scs8hd_tapvpwrvgnd_1
XPHY_110 vgnd vpwr scs8hd_tapvpwrvgnd_1
XANTENNA__45__A address[3] vgnd vpwr scs8hd_diode_2
XFILLER_22_129 vgnd vpwr scs8hd_decap_12
XFILLER_15_192 vgnd vpwr scs8hd_decap_3
XPHY_1 vgnd vpwr scs8hd_decap_3
XFILLER_26_15 vgnd vpwr scs8hd_decap_12
XFILLER_21_184 vgnd vpwr scs8hd_decap_12
XFILLER_8_188 vpwr vgnd scs8hd_fill_2
XFILLER_3_19 vpwr vgnd scs8hd_fill_2
XFILLER_26_210 vpwr vgnd scs8hd_fill_2
XANTENNA__42__B address[2] vgnd vpwr scs8hd_diode_2
XFILLER_5_158 vpwr vgnd scs8hd_fill_2
XFILLER_4_51 vpwr vgnd scs8hd_fill_2
XFILLER_4_84 vpwr vgnd scs8hd_fill_2
XFILLER_14_202 vgnd vpwr scs8hd_decap_8
XANTENNA__37__B _45_/B vgnd vpwr scs8hd_diode_2
XFILLER_2_128 vgnd vpwr scs8hd_decap_3
XANTENNA__53__A address[5] vgnd vpwr scs8hd_diode_2
XFILLER_29_7 vpwr vgnd scs8hd_fill_2
XFILLER_1_172 vgnd vpwr scs8hd_fill_1
X_42_ _24_/Y address[2] address[0] _41_/D _42_/Y vgnd vpwr scs8hd_nor4_4
XFILLER_18_27 vgnd vpwr scs8hd_decap_4
Xmux_top_ipin_0.mux_l1_in_1_.TGATE_1_.scs8hd_ebufn_2 mux_top_ipin_0.INVTX1_4_.scs8hd_inv_1/Y
+ mem_top_ipin_0.LATCH_1_.latch/Q mux_top_ipin_0.mux_l1_in_1_.TGATE_1_.scs8hd_ebufn_2/Z
+ vgnd vpwr scs8hd_ebufn_2
XANTENNA_mux_bottom_ipin_2.INVTX1_0_.scs8hd_inv_1_A chanx_left_in[1] vgnd vpwr scs8hd_diode_2
XANTENNA__48__A _24_/Y vgnd vpwr scs8hd_diode_2
X_25_ address[2] _55_/B vgnd vpwr scs8hd_inv_8
Xmux_top_ipin_2.INVTX1_1_.scs8hd_inv_1 chanx_right_in[5] mux_top_ipin_2.INVTX1_1_.scs8hd_inv_1/Y
+ vgnd vpwr scs8hd_inv_1
Xmux_bottom_ipin_1.tap_buf4_0_.scs8hd_inv_1 mux_bottom_ipin_1.tap_buf4_0_.scs8hd_inv_1/A
+ top_grid_pin_6_ vgnd vpwr scs8hd_inv_1
XANTENNA_mem_top_ipin_0.LATCH_4_.latch_SLEEPB _55_/Y vgnd vpwr scs8hd_diode_2
XANTENNA__50__B address[2] vgnd vpwr scs8hd_diode_2
XFILLER_19_135 vgnd vpwr scs8hd_decap_12
XFILLER_31_27 vgnd vpwr scs8hd_decap_4
XFILLER_18_190 vgnd vpwr scs8hd_decap_12
XFILLER_15_39 vgnd vpwr scs8hd_decap_12
XPHY_100 vgnd vpwr scs8hd_tapvpwrvgnd_1
XANTENNA__45__B _45_/B vgnd vpwr scs8hd_diode_2
XFILLER_0_204 vpwr vgnd scs8hd_fill_2
XPHY_155 vgnd vpwr scs8hd_tapvpwrvgnd_1
XPHY_144 vgnd vpwr scs8hd_tapvpwrvgnd_1
XPHY_133 vgnd vpwr scs8hd_tapvpwrvgnd_1
XPHY_122 vgnd vpwr scs8hd_tapvpwrvgnd_1
XFILLER_15_182 vgnd vpwr scs8hd_fill_1
XPHY_111 vgnd vpwr scs8hd_tapvpwrvgnd_1
XFILLER_11_7 vgnd vpwr scs8hd_decap_12
XPHY_2 vgnd vpwr scs8hd_decap_3
XANTENNA__61__A address[5] vgnd vpwr scs8hd_diode_2
XFILLER_30_141 vgnd vpwr scs8hd_decap_12
XFILLER_26_27 vgnd vpwr scs8hd_decap_4
XFILLER_21_196 vgnd vpwr scs8hd_decap_12
XFILLER_13_119 vgnd vpwr scs8hd_fill_1
XFILLER_7_40 vpwr vgnd scs8hd_fill_2
XFILLER_12_152 vgnd vpwr scs8hd_fill_1
XFILLER_8_145 vpwr vgnd scs8hd_fill_2
XANTENNA__56__A _24_/Y vgnd vpwr scs8hd_diode_2
XANTENNA_mem_bottom_ipin_2.LATCH_1_.latch_SLEEPB _50_/Y vgnd vpwr scs8hd_diode_2
Xmux_top_ipin_2.mux_l1_in_0_.TGATE_0_.scs8hd_ebufn_2 mux_top_ipin_2.INVTX1_0_.scs8hd_inv_1/Y
+ _36_/A mux_top_ipin_2.mux_l1_in_0_.TGATE_0_.scs8hd_ebufn_2/Z vgnd vpwr scs8hd_ebufn_2
XANTENNA__42__C address[0] vgnd vpwr scs8hd_diode_2
XFILLER_5_104 vpwr vgnd scs8hd_fill_2
XANTENNA_mux_bottom_ipin_0.mux_l1_in_0_.TGATE_0_.scs8hd_ebufn_2_TEB mem_bottom_ipin_0.LATCH_0_.latch/Q
+ vgnd vpwr scs8hd_diode_2
XFILLER_13_83 vpwr vgnd scs8hd_fill_2
Xmem_top_ipin_0.LATCH_5_.latch data_in mem_top_ipin_0.LATCH_5_.latch/Q _54_/Y vgnd
+ vpwr scs8hd_lpflow_inputisolatch_1
XFILLER_9_19 vpwr vgnd scs8hd_fill_2
X_41_ _24_/Y address[2] _50_/C _41_/D _41_/Y vgnd vpwr scs8hd_nor4_4
XANTENNA__53__B _45_/D vgnd vpwr scs8hd_diode_2
XFILLER_24_93 vgnd vpwr scs8hd_decap_12
XANTENNA__64__A _27_/Y vgnd vpwr scs8hd_diode_2
XANTENNA__48__B address[2] vgnd vpwr scs8hd_diode_2
X_24_ address[1] _24_/Y vgnd vpwr scs8hd_inv_8
XFILLER_1_53 vpwr vgnd scs8hd_fill_2
XANTENNA_mux_bottom_ipin_2.mux_l2_in_0_.TGATE_2_.scs8hd_ebufn_2_A _68_/HI vgnd vpwr
+ scs8hd_diode_2
XFILLER_10_40 vgnd vpwr scs8hd_decap_4
XANTENNA__50__C _50_/C vgnd vpwr scs8hd_diode_2
XANTENNA_mem_bottom_ipin_0.LATCH_2_.latch_SLEEPB _42_/Y vgnd vpwr scs8hd_diode_2
XFILLER_19_147 vgnd vpwr scs8hd_decap_12
Xmux_bottom_ipin_1.INVTX1_1_.scs8hd_inv_1 chanx_right_in[1] mux_bottom_ipin_1.INVTX1_1_.scs8hd_inv_1/Y
+ vgnd vpwr scs8hd_inv_1
XFILLER_10_84 vpwr vgnd scs8hd_fill_2
XANTENNA__59__A address[1] vgnd vpwr scs8hd_diode_2
Xmux_top_ipin_0.INVTX1_1_.scs8hd_inv_1 chanx_right_in[2] mux_top_ipin_0.INVTX1_1_.scs8hd_inv_1/Y
+ vgnd vpwr scs8hd_inv_1
XPHY_156 vgnd vpwr scs8hd_tapvpwrvgnd_1
XPHY_145 vgnd vpwr scs8hd_tapvpwrvgnd_1
XPHY_134 vgnd vpwr scs8hd_tapvpwrvgnd_1
XPHY_123 vgnd vpwr scs8hd_tapvpwrvgnd_1
XPHY_112 vgnd vpwr scs8hd_tapvpwrvgnd_1
XPHY_101 vgnd vpwr scs8hd_tapvpwrvgnd_1
XANTENNA__45__C address[5] vgnd vpwr scs8hd_diode_2
XANTENNA_mem_bottom_ipin_0.LATCH_1_.latch_D data_in vgnd vpwr scs8hd_diode_2
Xmem_bottom_ipin_0.LATCH_5_.latch data_in mem_bottom_ipin_0.LATCH_5_.latch/Q _39_/Y
+ vgnd vpwr scs8hd_lpflow_inputisolatch_1
XANTENNA__61__B address[4] vgnd vpwr scs8hd_diode_2
Xmux_bottom_ipin_2.INVTX1_5_.scs8hd_inv_1 chanx_right_in[6] mux_bottom_ipin_2.INVTX1_5_.scs8hd_inv_1/Y
+ vgnd vpwr scs8hd_inv_1
XPHY_3 vgnd vpwr scs8hd_decap_3
XFILLER_12_142 vpwr vgnd scs8hd_fill_2
XFILLER_12_120 vgnd vpwr scs8hd_decap_3
XANTENNA__56__B address[2] vgnd vpwr scs8hd_diode_2
XANTENNA__72__A chanx_right_in[8] vgnd vpwr scs8hd_diode_2
XFILLER_12_186 vgnd vpwr scs8hd_decap_8
XFILLER_12_175 vgnd vpwr scs8hd_decap_8
XFILLER_12_19 vgnd vpwr scs8hd_decap_12
XFILLER_8_135 vgnd vpwr scs8hd_decap_4
Xmem_top_ipin_1.LATCH_1_.latch data_in _33_/A _62_/Y vgnd vpwr scs8hd_lpflow_inputisolatch_1
XANTENNA__42__D _41_/D vgnd vpwr scs8hd_diode_2
XFILLER_5_116 vgnd vpwr scs8hd_decap_4
XFILLER_5_127 vgnd vpwr scs8hd_decap_4
XANTENNA_mux_top_ipin_0.mux_l1_in_0_.TGATE_0_.scs8hd_ebufn_2_A mux_top_ipin_0.INVTX1_0_.scs8hd_inv_1/Y
+ vgnd vpwr scs8hd_diode_2
XFILLER_13_62 vpwr vgnd scs8hd_fill_2
X_40_ address[1] _55_/B address[0] _41_/D _40_/Y vgnd vpwr scs8hd_nor4_4
XANTENNA__53__C _52_/A vgnd vpwr scs8hd_diode_2
XANTENNA__64__B address[4] vgnd vpwr scs8hd_diode_2
XANTENNA__48__C _50_/C vgnd vpwr scs8hd_diode_2
XANTENNA__80__A chanx_right_in[0] vgnd vpwr scs8hd_diode_2
XFILLER_6_211 vgnd vpwr scs8hd_fill_1
XFILLER_1_32 vpwr vgnd scs8hd_fill_2
Xmem_bottom_ipin_1.LATCH_1_.latch data_in _31_/A _60_/Y vgnd vpwr scs8hd_lpflow_inputisolatch_1
XANTENNA__75__A chanx_right_in[5] vgnd vpwr scs8hd_diode_2
XFILLER_19_159 vgnd vpwr scs8hd_decap_12
XANTENNA__50__D _50_/D vgnd vpwr scs8hd_diode_2
XANTENNA__59__B address[2] vgnd vpwr scs8hd_diode_2
Xmux_top_ipin_1.mux_l1_in_0_.TGATE_0_.scs8hd_ebufn_2 mux_top_ipin_1.INVTX1_0_.scs8hd_inv_1/Y
+ _34_/A mux_top_ipin_1.mux_l1_in_0_.TGATE_1_.scs8hd_ebufn_2/Z vgnd vpwr scs8hd_ebufn_2
XFILLER_25_3 vgnd vpwr scs8hd_decap_12
XPHY_157 vgnd vpwr scs8hd_tapvpwrvgnd_1
XPHY_146 vgnd vpwr scs8hd_tapvpwrvgnd_1
XPHY_135 vgnd vpwr scs8hd_tapvpwrvgnd_1
XFILLER_21_62 vgnd vpwr scs8hd_decap_12
XFILLER_21_51 vgnd vpwr scs8hd_decap_8
XPHY_124 vgnd vpwr scs8hd_tapvpwrvgnd_1
XPHY_113 vgnd vpwr scs8hd_tapvpwrvgnd_1
XPHY_102 vgnd vpwr scs8hd_tapvpwrvgnd_1
XANTENNA__45__D _45_/D vgnd vpwr scs8hd_diode_2
XANTENNA__61__C _61_/C vgnd vpwr scs8hd_diode_2
XFILLER_30_154 vgnd vpwr scs8hd_decap_12
XFILLER_15_184 vgnd vpwr scs8hd_decap_8
XFILLER_7_75 vpwr vgnd scs8hd_fill_2
XFILLER_7_53 vpwr vgnd scs8hd_fill_2
XPHY_4 vgnd vpwr scs8hd_decap_3
XFILLER_21_110 vgnd vpwr scs8hd_decap_12
XANTENNA__56__C _50_/C vgnd vpwr scs8hd_diode_2
XFILLER_12_154 vgnd vpwr scs8hd_fill_1
XANTENNA_mux_bottom_ipin_2.mux_l1_in_1_.TGATE_2_.scs8hd_ebufn_2_A mux_bottom_ipin_2.INVTX1_5_.scs8hd_inv_1/Y
+ vgnd vpwr scs8hd_diode_2
XFILLER_8_114 vpwr vgnd scs8hd_fill_2
XFILLER_26_202 vgnd vpwr scs8hd_decap_8
Xmux_bottom_ipin_0.INVTX1_5_.scs8hd_inv_1 chanx_right_in[8] mux_bottom_ipin_0.INVTX1_5_.scs8hd_inv_1/Y
+ vgnd vpwr scs8hd_inv_1
XANTENNA__83__A chanx_left_in[6] vgnd vpwr scs8hd_diode_2
XANTENNA_mux_top_ipin_0.mux_l2_in_0_.TGATE_0_.scs8hd_ebufn_2_TEB mem_top_ipin_0.LATCH_3_.latch/Q
+ vgnd vpwr scs8hd_diode_2
XFILLER_23_19 vgnd vpwr scs8hd_decap_12
Xmux_top_ipin_2.mux_l2_in_0_.TGATE_1_.scs8hd_ebufn_2 _71_/HI _35_/Y mux_top_ipin_2.tap_buf4_0_.scs8hd_inv_1/A
+ vgnd vpwr scs8hd_ebufn_2
XFILLER_4_32 vpwr vgnd scs8hd_fill_2
XFILLER_4_76 vpwr vgnd scs8hd_fill_2
XFILLER_4_172 vpwr vgnd scs8hd_fill_2
XFILLER_13_96 vpwr vgnd scs8hd_fill_2
XANTENNA__53__D _45_/B vgnd vpwr scs8hd_diode_2
XANTENNA__78__A chanx_right_in[2] vgnd vpwr scs8hd_diode_2
XFILLER_1_153 vpwr vgnd scs8hd_fill_2
XFILLER_1_175 vpwr vgnd scs8hd_fill_2
XFILLER_1_197 vpwr vgnd scs8hd_fill_2
XFILLER_11_208 vgnd vpwr scs8hd_decap_4
XANTENNA__48__D _50_/D vgnd vpwr scs8hd_diode_2
XANTENNA__64__C _61_/C vgnd vpwr scs8hd_diode_2
XFILLER_1_99 vpwr vgnd scs8hd_fill_2
XFILLER_28_105 vgnd vpwr scs8hd_decap_12
XFILLER_27_171 vgnd vpwr scs8hd_decap_12
XFILLER_19_62 vgnd vpwr scs8hd_decap_12
XFILLER_19_51 vgnd vpwr scs8hd_decap_8
XFILLER_10_64 vgnd vpwr scs8hd_decap_4
XANTENNA__59__C address[0] vgnd vpwr scs8hd_diode_2
XFILLER_3_204 vpwr vgnd scs8hd_fill_2
XFILLER_18_3 vgnd vpwr scs8hd_decap_12
XPHY_158 vgnd vpwr scs8hd_tapvpwrvgnd_1
XPHY_147 vgnd vpwr scs8hd_tapvpwrvgnd_1
XFILLER_24_141 vgnd vpwr scs8hd_decap_12
XPHY_136 vgnd vpwr scs8hd_tapvpwrvgnd_1
XFILLER_21_74 vgnd vpwr scs8hd_decap_12
XPHY_125 vgnd vpwr scs8hd_tapvpwrvgnd_1
XFILLER_16_108 vgnd vpwr scs8hd_decap_12
XPHY_114 vgnd vpwr scs8hd_tapvpwrvgnd_1
XPHY_103 vgnd vpwr scs8hd_tapvpwrvgnd_1
XANTENNA__61__D address[0] vgnd vpwr scs8hd_diode_2
XFILLER_30_166 vgnd vpwr scs8hd_decap_12
XFILLER_15_130 vgnd vpwr scs8hd_decap_12
XANTENNA__86__A chanx_left_in[3] vgnd vpwr scs8hd_diode_2
XPHY_5 vgnd vpwr scs8hd_decap_3
XANTENNA_mem_top_ipin_2.LATCH_0_.latch_SLEEPB _65_/Y vgnd vpwr scs8hd_diode_2
XFILLER_16_96 vgnd vpwr scs8hd_decap_12
XFILLER_12_199 vgnd vpwr scs8hd_decap_12
XFILLER_12_100 vpwr vgnd scs8hd_fill_2
XANTENNA__56__D _58_/D vgnd vpwr scs8hd_diode_2
XANTENNA_mem_top_ipin_0.LATCH_2_.latch_D data_in vgnd vpwr scs8hd_diode_2
XFILLER_27_62 vgnd vpwr scs8hd_decap_12
XFILLER_27_51 vgnd vpwr scs8hd_decap_8
XANTENNA_mem_top_ipin_1.LATCH_0_.latch_D data_in vgnd vpwr scs8hd_diode_2
XANTENNA_mux_top_ipin_1.mux_l1_in_0_.TGATE_0_.scs8hd_ebufn_2_A mux_top_ipin_1.INVTX1_0_.scs8hd_inv_1/Y
+ vgnd vpwr scs8hd_diode_2
XFILLER_4_22 vgnd vpwr scs8hd_decap_3
XFILLER_4_88 vpwr vgnd scs8hd_fill_2
Xmux_top_ipin_0.mux_l1_in_0_.TGATE_0_.scs8hd_ebufn_2 mux_top_ipin_0.INVTX1_0_.scs8hd_inv_1/Y
+ mem_top_ipin_0.LATCH_0_.latch/Q mux_top_ipin_0.mux_l1_in_0_.TGATE_2_.scs8hd_ebufn_2/Z
+ vgnd vpwr scs8hd_ebufn_2
XFILLER_13_53 vpwr vgnd scs8hd_fill_2
XFILLER_13_42 vpwr vgnd scs8hd_fill_2
XANTENNA_mux_top_ipin_1.INVTX1_1_.scs8hd_inv_1_A chanx_right_in[4] vgnd vpwr scs8hd_diode_2
XFILLER_1_143 vpwr vgnd scs8hd_fill_2
XFILLER_1_9 vpwr vgnd scs8hd_fill_2
XANTENNA_mem_top_ipin_0.LATCH_1_.latch_SLEEPB _58_/Y vgnd vpwr scs8hd_diode_2
XANTENNA__64__D _50_/C vgnd vpwr scs8hd_diode_2
XANTENNA__89__A chanx_left_in[0] vgnd vpwr scs8hd_diode_2
XFILLER_28_117 vgnd vpwr scs8hd_decap_12
XFILLER_19_74 vgnd vpwr scs8hd_decap_12
XFILLER_10_32 vgnd vpwr scs8hd_decap_3
XANTENNA__59__D _58_/D vgnd vpwr scs8hd_diode_2
XPHY_159 vgnd vpwr scs8hd_tapvpwrvgnd_1
XPHY_148 vgnd vpwr scs8hd_tapvpwrvgnd_1
XPHY_137 vgnd vpwr scs8hd_tapvpwrvgnd_1
XPHY_126 vgnd vpwr scs8hd_tapvpwrvgnd_1
XPHY_115 vgnd vpwr scs8hd_tapvpwrvgnd_1
XPHY_104 vgnd vpwr scs8hd_tapvpwrvgnd_1
XFILLER_0_208 vpwr vgnd scs8hd_fill_2
XFILLER_30_178 vgnd vpwr scs8hd_decap_12
XFILLER_21_86 vgnd vpwr scs8hd_decap_12
XFILLER_15_197 vgnd vpwr scs8hd_decap_12
XFILLER_15_142 vgnd vpwr scs8hd_decap_12
XFILLER_7_22 vgnd vpwr scs8hd_decap_3
XFILLER_7_11 vpwr vgnd scs8hd_fill_2
Xmux_top_ipin_1.mux_l2_in_0_.TGATE_1_.scs8hd_ebufn_2 _70_/HI _33_/Y mux_top_ipin_1.tap_buf4_0_.scs8hd_inv_1/A
+ vgnd vpwr scs8hd_ebufn_2
XANTENNA_mux_bottom_ipin_0.mux_l2_in_0_.TGATE_0_.scs8hd_ebufn_2_TEB mem_bottom_ipin_0.LATCH_3_.latch/Q
+ vgnd vpwr scs8hd_diode_2
XPHY_6 vgnd vpwr scs8hd_decap_3
XFILLER_30_3 vgnd vpwr scs8hd_decap_12
XFILLER_21_123 vgnd vpwr scs8hd_decap_12
XFILLER_16_64 vgnd vpwr scs8hd_decap_12
XFILLER_8_149 vpwr vgnd scs8hd_fill_2
XFILLER_7_193 vgnd vpwr scs8hd_decap_3
XFILLER_7_160 vpwr vgnd scs8hd_fill_2
XFILLER_27_74 vgnd vpwr scs8hd_decap_12
XFILLER_4_185 vpwr vgnd scs8hd_fill_2
Xmem_top_ipin_0.LATCH_0_.latch data_in mem_top_ipin_0.LATCH_0_.latch/Q _59_/Y vgnd
+ vpwr scs8hd_lpflow_inputisolatch_1
XFILLER_9_200 vpwr vgnd scs8hd_fill_2
XFILLER_6_203 vgnd vpwr scs8hd_decap_8
XFILLER_1_57 vpwr vgnd scs8hd_fill_2
XFILLER_1_13 vpwr vgnd scs8hd_fill_2
XANTENNA_mem_bottom_ipin_0.LATCH_4_.latch_D data_in vgnd vpwr scs8hd_diode_2
XFILLER_28_129 vgnd vpwr scs8hd_decap_12
XFILLER_10_88 vpwr vgnd scs8hd_fill_2
XANTENNA_mem_bottom_ipin_2.LATCH_0_.latch_D data_in vgnd vpwr scs8hd_diode_2
XFILLER_27_184 vgnd vpwr scs8hd_decap_12