* NGSPICE file created from cbx_1__2_.ext - technology: sky130A

* Black-box entry subcircuit for sky130_fd_sc_hd__diode_2 abstract view
.subckt sky130_fd_sc_hd__diode_2 DIODE VGND VNB VPB VPWR
.ends

* Black-box entry subcircuit for sky130_fd_sc_hd__dfxtp_1 abstract view
.subckt sky130_fd_sc_hd__dfxtp_1 CLK D VGND VNB VPB VPWR Q
.ends

* Black-box entry subcircuit for sky130_fd_sc_hd__fill_1 abstract view
.subckt sky130_fd_sc_hd__fill_1 VGND VNB VPB VPWR
.ends

* Black-box entry subcircuit for sky130_fd_sc_hd__mux2_1 abstract view
.subckt sky130_fd_sc_hd__mux2_1 A0 A1 S VGND VNB VPB VPWR X
.ends

* Black-box entry subcircuit for sky130_fd_sc_hd__buf_2 abstract view
.subckt sky130_fd_sc_hd__buf_2 A VGND VNB VPB VPWR X
.ends

* Black-box entry subcircuit for sky130_fd_sc_hd__decap_12 abstract view
.subckt sky130_fd_sc_hd__decap_12 VGND VNB VPB VPWR
.ends

* Black-box entry subcircuit for sky130_fd_sc_hd__decap_6 abstract view
.subckt sky130_fd_sc_hd__decap_6 VGND VNB VPB VPWR
.ends

* Black-box entry subcircuit for sky130_fd_sc_hd__clkbuf_1 abstract view
.subckt sky130_fd_sc_hd__clkbuf_1 A VGND VNB VPB VPWR X
.ends

* Black-box entry subcircuit for sky130_fd_sc_hd__decap_3 abstract view
.subckt sky130_fd_sc_hd__decap_3 VGND VNB VPB VPWR
.ends

* Black-box entry subcircuit for sky130_fd_sc_hd__decap_8 abstract view
.subckt sky130_fd_sc_hd__decap_8 VGND VNB VPB VPWR
.ends

* Black-box entry subcircuit for sky130_fd_sc_hd__decap_4 abstract view
.subckt sky130_fd_sc_hd__decap_4 VGND VNB VPB VPWR
.ends

* Black-box entry subcircuit for sky130_fd_sc_hd__buf_4 abstract view
.subckt sky130_fd_sc_hd__buf_4 A VGND VNB VPB VPWR X
.ends

* Black-box entry subcircuit for sky130_fd_sc_hd__buf_8 abstract view
.subckt sky130_fd_sc_hd__buf_8 A VGND VNB VPB VPWR X
.ends

* Black-box entry subcircuit for sky130_fd_sc_hd__conb_1 abstract view
.subckt sky130_fd_sc_hd__conb_1 VGND VNB VPB VPWR HI LO
.ends

* Black-box entry subcircuit for sky130_fd_sc_hd__tapvpwrvgnd_1 abstract view
.subckt sky130_fd_sc_hd__tapvpwrvgnd_1 VGND VPWR
.ends

* Black-box entry subcircuit for sky130_fd_sc_hd__inv_1 abstract view
.subckt sky130_fd_sc_hd__inv_1 A VGND VNB VPB VPWR Y
.ends

* Black-box entry subcircuit for sky130_fd_sc_hd__fill_2 abstract view
.subckt sky130_fd_sc_hd__fill_2 VGND VNB VPB VPWR
.ends

* Black-box entry subcircuit for sky130_fd_sc_hd__ebufn_4 abstract view
.subckt sky130_fd_sc_hd__ebufn_4 A TE_B VGND VNB VPB VPWR Z
.ends

* Black-box entry subcircuit for sky130_fd_sc_hd__clkbuf_16 abstract view
.subckt sky130_fd_sc_hd__clkbuf_16 A VGND VNB VPB VPWR X
.ends

* Black-box entry subcircuit for sky130_fd_sc_hd__or2b_4 abstract view
.subckt sky130_fd_sc_hd__or2b_4 A B_N VGND VNB VPB VPWR X
.ends

.subckt cbx_1__2_ IO_ISOL_N SC_IN_BOT SC_IN_TOP SC_OUT_BOT SC_OUT_TOP bottom_grid_pin_0_
+ bottom_grid_pin_10_ bottom_grid_pin_11_ bottom_grid_pin_12_ bottom_grid_pin_13_
+ bottom_grid_pin_14_ bottom_grid_pin_15_ bottom_grid_pin_1_ bottom_grid_pin_2_ bottom_grid_pin_3_
+ bottom_grid_pin_4_ bottom_grid_pin_5_ bottom_grid_pin_6_ bottom_grid_pin_7_ bottom_grid_pin_8_
+ bottom_grid_pin_9_ bottom_width_0_height_0__pin_0_ bottom_width_0_height_0__pin_1_lower
+ bottom_width_0_height_0__pin_1_upper ccff_head ccff_tail chanx_left_in[0] chanx_left_in[10]
+ chanx_left_in[11] chanx_left_in[12] chanx_left_in[13] chanx_left_in[14] chanx_left_in[15]
+ chanx_left_in[16] chanx_left_in[17] chanx_left_in[18] chanx_left_in[19] chanx_left_in[1]
+ chanx_left_in[2] chanx_left_in[3] chanx_left_in[4] chanx_left_in[5] chanx_left_in[6]
+ chanx_left_in[7] chanx_left_in[8] chanx_left_in[9] chanx_left_out[0] chanx_left_out[10]
+ chanx_left_out[11] chanx_left_out[12] chanx_left_out[13] chanx_left_out[14] chanx_left_out[15]
+ chanx_left_out[16] chanx_left_out[17] chanx_left_out[18] chanx_left_out[19] chanx_left_out[1]
+ chanx_left_out[2] chanx_left_out[3] chanx_left_out[4] chanx_left_out[5] chanx_left_out[6]
+ chanx_left_out[7] chanx_left_out[8] chanx_left_out[9] chanx_right_in[0] chanx_right_in[10]
+ chanx_right_in[11] chanx_right_in[12] chanx_right_in[13] chanx_right_in[14] chanx_right_in[15]
+ chanx_right_in[16] chanx_right_in[17] chanx_right_in[18] chanx_right_in[19] chanx_right_in[1]
+ chanx_right_in[2] chanx_right_in[3] chanx_right_in[4] chanx_right_in[5] chanx_right_in[6]
+ chanx_right_in[7] chanx_right_in[8] chanx_right_in[9] chanx_right_out[0] chanx_right_out[10]
+ chanx_right_out[11] chanx_right_out[12] chanx_right_out[13] chanx_right_out[14]
+ chanx_right_out[15] chanx_right_out[16] chanx_right_out[17] chanx_right_out[18]
+ chanx_right_out[19] chanx_right_out[1] chanx_right_out[2] chanx_right_out[3] chanx_right_out[4]
+ chanx_right_out[5] chanx_right_out[6] chanx_right_out[7] chanx_right_out[8] chanx_right_out[9]
+ gfpga_pad_EMBEDDED_IO_HD_SOC_DIR gfpga_pad_EMBEDDED_IO_HD_SOC_IN gfpga_pad_EMBEDDED_IO_HD_SOC_OUT
+ prog_clk_0_S_in prog_clk_0_W_out top_grid_pin_0_ VPWR VGND
XANTENNA_mux_top_ipin_7.mux_l1_in_0__A1 chanx_left_in[0] VGND VGND VPWR VPWR sky130_fd_sc_hd__diode_2
Xmem_top_ipin_8.sky130_fd_sc_hd__dfxtp_1_0_ mem_top_ipin_7.sky130_fd_sc_hd__dfxtp_1_2_/CLK
+ mux_top_ipin_7.mux_l4_in_0_/S VGND VGND VPWR VPWR mux_top_ipin_8.mux_l1_in_0_/S
+ sky130_fd_sc_hd__dfxtp_1
XFILLER_12_32 VGND VGND VPWR VPWR sky130_fd_sc_hd__fill_1
XFILLER_12_10 VGND VGND VPWR VPWR sky130_fd_sc_hd__fill_1
Xmux_top_ipin_13.mux_l3_in_0_ mux_top_ipin_13.mux_l2_in_1_/X mux_top_ipin_13.mux_l2_in_0_/X
+ mux_top_ipin_13.mux_l3_in_0_/S VGND VGND VPWR VPWR mux_top_ipin_13.mux_l3_in_0_/X
+ sky130_fd_sc_hd__mux2_1
X_66_ chanx_left_in[9] VGND VGND VPWR VPWR chanx_right_out[9] sky130_fd_sc_hd__buf_2
Xmux_top_ipin_6.mux_l2_in_0_ chanx_left_in[3] mux_top_ipin_6.mux_l1_in_0_/X mux_top_ipin_6.mux_l2_in_2_/S
+ VGND VGND VPWR VPWR mux_top_ipin_6.mux_l2_in_0_/X sky130_fd_sc_hd__mux2_1
XANTENNA_mux_top_ipin_10.mux_l2_in_2__A1 chanx_right_in[7] VGND VGND VPWR VPWR sky130_fd_sc_hd__diode_2
XFILLER_2_154 VGND VGND VPWR VPWR sky130_fd_sc_hd__decap_12
X_49_ chanx_right_in[12] VGND VGND VPWR VPWR chanx_left_out[12] sky130_fd_sc_hd__buf_2
XANTENNA_mux_top_ipin_5.mux_l2_in_1__A1 chanx_right_in[2] VGND VGND VPWR VPWR sky130_fd_sc_hd__diode_2
Xmux_top_ipin_13.mux_l2_in_1_ chanx_left_in[10] chanx_right_in[2] mux_top_ipin_13.mux_l2_in_2_/S
+ VGND VGND VPWR VPWR mux_top_ipin_13.mux_l2_in_1_/X sky130_fd_sc_hd__mux2_1
XFILLER_20_32 VGND VGND VPWR VPWR sky130_fd_sc_hd__decap_6
XANTENNA_mux_top_ipin_3.mux_l2_in_3__A1 chanx_right_in[14] VGND VGND VPWR VPWR sky130_fd_sc_hd__diode_2
XANTENNA_mux_top_ipin_2.mux_l1_in_0__A0 chanx_right_in[1] VGND VGND VPWR VPWR sky130_fd_sc_hd__diode_2
XANTENNA_mem_bottom_ipin_0.sky130_fd_sc_hd__dfxtp_1_0__D ccff_head VGND VGND VPWR
+ VPWR sky130_fd_sc_hd__diode_2
Xclkbuf_3_3_0_logical_tile_io_mode_io__0.ltile_phy_iopad_0.EMBEDDED_IO_HD_sky130_fd_sc_hd__dfxtp_1_mem.prog_clk
+ clkbuf_3_3_0_logical_tile_io_mode_io__0.ltile_phy_iopad_0.EMBEDDED_IO_HD_sky130_fd_sc_hd__dfxtp_1_mem.prog_clk/A
+ VGND VGND VPWR VPWR mem_top_ipin_7.sky130_fd_sc_hd__dfxtp_1_1_/CLK sky130_fd_sc_hd__clkbuf_1
XFILLER_6_45 VGND VGND VPWR VPWR sky130_fd_sc_hd__fill_1
XFILLER_15_21 VGND VGND VPWR VPWR sky130_fd_sc_hd__fill_1
XANTENNA_mux_top_ipin_0.mux_l1_in_2__A0 chanx_right_in[5] VGND VGND VPWR VPWR sky130_fd_sc_hd__diode_2
XFILLER_22_156 VGND VGND VPWR VPWR sky130_fd_sc_hd__decap_3
Xmux_top_ipin_1.mux_l1_in_0_ chanx_right_in[0] chanx_left_in[0] mux_top_ipin_1.mux_l1_in_0_/S
+ VGND VGND VPWR VPWR mux_top_ipin_1.mux_l1_in_0_/X sky130_fd_sc_hd__mux2_1
XANTENNA_mux_top_ipin_0.mux_l2_in_1__A0 chanx_left_in[11] VGND VGND VPWR VPWR sky130_fd_sc_hd__diode_2
X_65_ chanx_left_in[8] VGND VGND VPWR VPWR chanx_right_out[8] sky130_fd_sc_hd__buf_2
XANTENNA_prog_clk_0_W_FTB01_A prog_clk_0_S_in VGND VGND VPWR VPWR sky130_fd_sc_hd__diode_2
XFILLER_2_166 VGND VGND VPWR VPWR sky130_fd_sc_hd__decap_8
X_48_ chanx_right_in[11] VGND VGND VPWR VPWR chanx_left_out[11] sky130_fd_sc_hd__buf_2
Xmux_top_ipin_13.mux_l2_in_0_ chanx_left_in[2] mux_top_ipin_13.mux_l1_in_0_/X mux_top_ipin_13.mux_l2_in_2_/S
+ VGND VGND VPWR VPWR mux_top_ipin_13.mux_l2_in_0_/X sky130_fd_sc_hd__mux2_1
Xmux_top_ipin_6.mux_l1_in_0_ chanx_right_in[1] chanx_left_in[1] mux_top_ipin_6.mux_l1_in_0_/S
+ VGND VGND VPWR VPWR mux_top_ipin_6.mux_l1_in_0_/X sky130_fd_sc_hd__mux2_1
XANTENNA_mux_top_ipin_14.mux_l2_in_1__A0 chanx_left_in[11] VGND VGND VPWR VPWR sky130_fd_sc_hd__diode_2
XANTENNA_mux_top_ipin_2.mux_l1_in_0__A1 chanx_left_in[1] VGND VGND VPWR VPWR sky130_fd_sc_hd__diode_2
XANTENNA_mux_top_ipin_9.mux_l2_in_0__A0 chanx_left_in[2] VGND VGND VPWR VPWR sky130_fd_sc_hd__diode_2
Xmem_bottom_ipin_0.sky130_fd_sc_hd__dfxtp_1_3_ mem_top_ipin_0.sky130_fd_sc_hd__dfxtp_1_0_/CLK
+ mux_bottom_ipin_0.mux_l3_in_1_/S VGND VGND VPWR VPWR mux_bottom_ipin_0.mux_l4_in_0_/S
+ sky130_fd_sc_hd__dfxtp_1
XANTENNA_mux_top_ipin_0.mux_l1_in_2__A1 chanx_left_in[5] VGND VGND VPWR VPWR sky130_fd_sc_hd__diode_2
XANTENNA_mux_top_ipin_7.mux_l2_in_2__A0 chanx_left_in[18] VGND VGND VPWR VPWR sky130_fd_sc_hd__diode_2
XFILLER_8_161 VGND VGND VPWR VPWR sky130_fd_sc_hd__decap_12
X_64_ chanx_left_in[7] VGND VGND VPWR VPWR chanx_right_out[7] sky130_fd_sc_hd__buf_2
XFILLER_5_186 VGND VGND VPWR VPWR sky130_fd_sc_hd__decap_4
Xmux_top_ipin_4.sky130_fd_sc_hd__buf_4_0_ mux_top_ipin_4.mux_l4_in_0_/X VGND VGND
+ VPWR VPWR bottom_grid_pin_4_ sky130_fd_sc_hd__buf_4
XFILLER_3_3 VGND VGND VPWR VPWR sky130_fd_sc_hd__fill_1
X_47_ chanx_right_in[10] VGND VGND VPWR VPWR chanx_left_out[10] sky130_fd_sc_hd__buf_2
XANTENNA_mux_top_ipin_14.mux_l2_in_1__A1 chanx_right_in[3] VGND VGND VPWR VPWR sky130_fd_sc_hd__diode_2
Xmux_top_ipin_13.mux_l1_in_0_ chanx_right_in[0] chanx_left_in[0] mux_top_ipin_13.mux_l1_in_0_/S
+ VGND VGND VPWR VPWR mux_top_ipin_13.mux_l1_in_0_/X sky130_fd_sc_hd__mux2_1
XFILLER_16_111 VGND VGND VPWR VPWR sky130_fd_sc_hd__decap_3
XFILLER_22_125 VGND VGND VPWR VPWR sky130_fd_sc_hd__decap_12
Xmem_bottom_ipin_0.sky130_fd_sc_hd__dfxtp_1_2_ mem_top_ipin_0.sky130_fd_sc_hd__dfxtp_1_0_/CLK
+ mux_bottom_ipin_0.mux_l2_in_3_/S VGND VGND VPWR VPWR mux_bottom_ipin_0.mux_l3_in_1_/S
+ sky130_fd_sc_hd__dfxtp_1
XANTENNA_mux_top_ipin_12.mux_l2_in_3__A1 chanx_right_in[17] VGND VGND VPWR VPWR sky130_fd_sc_hd__diode_2
XANTENNA_mux_top_ipin_11.mux_l1_in_0__A0 chanx_right_in[0] VGND VGND VPWR VPWR sky130_fd_sc_hd__diode_2
XANTENNA_mux_top_ipin_7.mux_l2_in_2__A1 chanx_right_in[12] VGND VGND VPWR VPWR sky130_fd_sc_hd__diode_2
XFILLER_8_173 VGND VGND VPWR VPWR sky130_fd_sc_hd__decap_4
X_63_ chanx_left_in[6] VGND VGND VPWR VPWR chanx_right_out[6] sky130_fd_sc_hd__buf_2
Xprog_clk_0_FTB00 prog_clk_0_S_in VGND VGND VPWR VPWR prog_clk_0_FTB00/X sky130_fd_sc_hd__buf_8
XFILLER_0_38 VGND VGND VPWR VPWR sky130_fd_sc_hd__fill_1
XANTENNA_mux_top_ipin_4.mux_l1_in_1__A0 chanx_right_in[3] VGND VGND VPWR VPWR sky130_fd_sc_hd__diode_2
X_46_ chanx_right_in[9] VGND VGND VPWR VPWR chanx_left_out[9] sky130_fd_sc_hd__buf_2
XFILLER_9_25 VGND VGND VPWR VPWR sky130_fd_sc_hd__fill_1
XFILLER_18_12 VGND VGND VPWR VPWR sky130_fd_sc_hd__decap_12
X_29_ VGND VGND VPWR VPWR _29_/HI _29_/LO sky130_fd_sc_hd__conb_1
Xmux_top_ipin_11.sky130_fd_sc_hd__buf_4_0_ mux_top_ipin_11.mux_l4_in_0_/X VGND VGND
+ VPWR VPWR bottom_grid_pin_11_ sky130_fd_sc_hd__buf_4
Xmux_bottom_ipin_0.sky130_fd_sc_hd__buf_4_0_ mux_bottom_ipin_0.mux_l4_in_0_/X VGND
+ VGND VPWR VPWR top_grid_pin_0_ sky130_fd_sc_hd__buf_4
XFILLER_19_186 VGND VGND VPWR VPWR sky130_fd_sc_hd__decap_4
XANTENNA_mux_top_ipin_2.mux_l2_in_2__A0 chanx_left_in[15] VGND VGND VPWR VPWR sky130_fd_sc_hd__diode_2
Xmem_bottom_ipin_0.sky130_fd_sc_hd__dfxtp_1_1_ mem_top_ipin_7.sky130_fd_sc_hd__dfxtp_1_1_/CLK
+ mux_bottom_ipin_0.mux_l1_in_1_/S VGND VGND VPWR VPWR mux_bottom_ipin_0.mux_l2_in_3_/S
+ sky130_fd_sc_hd__dfxtp_1
XFILLER_16_189 VGND VGND VPWR VPWR sky130_fd_sc_hd__fill_1
XFILLER_22_137 VGND VGND VPWR VPWR sky130_fd_sc_hd__decap_12
Xmux_top_ipin_2.mux_l2_in_3_ _31_/HI chanx_right_in[15] mux_top_ipin_2.mux_l2_in_0_/S
+ VGND VGND VPWR VPWR mux_top_ipin_2.mux_l2_in_3_/X sky130_fd_sc_hd__mux2_1
XANTENNA_mux_top_ipin_11.mux_l1_in_0__A1 chanx_left_in[0] VGND VGND VPWR VPWR sky130_fd_sc_hd__diode_2
XFILLER_8_152 VGND VGND VPWR VPWR sky130_fd_sc_hd__fill_1
X_62_ chanx_left_in[5] VGND VGND VPWR VPWR chanx_right_out[5] sky130_fd_sc_hd__buf_2
XANTENNA_mux_top_ipin_4.mux_l1_in_1__A1 chanx_left_in[3] VGND VGND VPWR VPWR sky130_fd_sc_hd__diode_2
XANTENNA_logical_tile_io_mode_io__0.ltile_phy_iopad_0.EMBEDDED_IO_HD_0_.IN_PROTECT_GATE_A
+ gfpga_pad_EMBEDDED_IO_HD_SOC_IN VGND VGND VPWR VPWR sky130_fd_sc_hd__diode_2
XFILLER_18_24 VGND VGND VPWR VPWR sky130_fd_sc_hd__decap_6
Xmux_top_ipin_2.mux_l4_in_0_ mux_top_ipin_2.mux_l3_in_1_/X mux_top_ipin_2.mux_l3_in_0_/X
+ mux_top_ipin_2.mux_l4_in_0_/S VGND VGND VPWR VPWR mux_top_ipin_2.mux_l4_in_0_/X
+ sky130_fd_sc_hd__mux2_1
X_45_ chanx_right_in[8] VGND VGND VPWR VPWR chanx_left_out[8] sky130_fd_sc_hd__buf_2
XFILLER_1_60 VGND VGND VPWR VPWR sky130_fd_sc_hd__fill_1
X_28_ VGND VGND VPWR VPWR _28_/HI _28_/LO sky130_fd_sc_hd__conb_1
Xmux_top_ipin_7.mux_l2_in_3_ _19_/HI chanx_right_in[18] mux_top_ipin_7.mux_l2_in_0_/S
+ VGND VGND VPWR VPWR mux_top_ipin_7.mux_l2_in_3_/X sky130_fd_sc_hd__mux2_1
XFILLER_19_121 VGND VGND VPWR VPWR sky130_fd_sc_hd__fill_1
Xmux_top_ipin_2.mux_l3_in_1_ mux_top_ipin_2.mux_l2_in_3_/X mux_top_ipin_2.mux_l2_in_2_/X
+ mux_top_ipin_2.mux_l3_in_0_/S VGND VGND VPWR VPWR mux_top_ipin_2.mux_l3_in_1_/X
+ sky130_fd_sc_hd__mux2_1
XANTENNA_mux_top_ipin_2.mux_l2_in_2__A1 chanx_right_in[7] VGND VGND VPWR VPWR sky130_fd_sc_hd__diode_2
Xmem_bottom_ipin_0.sky130_fd_sc_hd__dfxtp_1_0_ mem_top_ipin_7.sky130_fd_sc_hd__dfxtp_1_1_/CLK
+ ccff_head VGND VGND VPWR VPWR mux_bottom_ipin_0.mux_l1_in_1_/S sky130_fd_sc_hd__dfxtp_1
XFILLER_22_149 VGND VGND VPWR VPWR sky130_fd_sc_hd__decap_6
XFILLER_21_182 VGND VGND VPWR VPWR sky130_fd_sc_hd__fill_1
Xmux_top_ipin_2.mux_l2_in_2_ chanx_left_in[15] chanx_right_in[7] mux_top_ipin_2.mux_l2_in_0_/S
+ VGND VGND VPWR VPWR mux_top_ipin_2.mux_l2_in_2_/X sky130_fd_sc_hd__mux2_1
Xmux_top_ipin_7.mux_l4_in_0_ mux_top_ipin_7.mux_l3_in_1_/X mux_top_ipin_7.mux_l3_in_0_/X
+ mux_top_ipin_7.mux_l4_in_0_/S VGND VGND VPWR VPWR mux_top_ipin_7.mux_l4_in_0_/X
+ sky130_fd_sc_hd__mux2_1
X_61_ chanx_left_in[4] VGND VGND VPWR VPWR chanx_right_out[4] sky130_fd_sc_hd__buf_2
XFILLER_5_167 VGND VGND VPWR VPWR sky130_fd_sc_hd__decap_12
Xmux_top_ipin_7.mux_l3_in_1_ mux_top_ipin_7.mux_l2_in_3_/X mux_top_ipin_7.mux_l2_in_2_/X
+ mux_top_ipin_7.mux_l3_in_0_/S VGND VGND VPWR VPWR mux_top_ipin_7.mux_l3_in_1_/X
+ sky130_fd_sc_hd__mux2_1
X_44_ chanx_right_in[7] VGND VGND VPWR VPWR chanx_left_out[7] sky130_fd_sc_hd__buf_2
X_27_ VGND VGND VPWR VPWR _27_/HI _27_/LO sky130_fd_sc_hd__conb_1
XFILLER_20_15 VGND VGND VPWR VPWR sky130_fd_sc_hd__decap_12
Xmux_top_ipin_7.mux_l2_in_2_ chanx_left_in[18] chanx_right_in[12] mux_top_ipin_7.mux_l2_in_0_/S
+ VGND VGND VPWR VPWR mux_top_ipin_7.mux_l2_in_2_/X sky130_fd_sc_hd__mux2_1
XANTENNA__34__A SC_IN_TOP VGND VGND VPWR VPWR sky130_fd_sc_hd__diode_2
XANTENNA_mux_top_ipin_9.mux_l2_in_3__A1 chanx_right_in[14] VGND VGND VPWR VPWR sky130_fd_sc_hd__diode_2
Xmux_top_ipin_2.mux_l3_in_0_ mux_top_ipin_2.mux_l2_in_1_/X mux_top_ipin_2.mux_l2_in_0_/X
+ mux_top_ipin_2.mux_l3_in_0_/S VGND VGND VPWR VPWR mux_top_ipin_2.mux_l3_in_0_/X
+ sky130_fd_sc_hd__mux2_1
Xmux_top_ipin_14.mux_l2_in_3_ _29_/HI chanx_right_in[19] mux_top_ipin_14.mux_l2_in_3_/S
+ VGND VGND VPWR VPWR mux_top_ipin_14.mux_l2_in_3_/X sky130_fd_sc_hd__mux2_1
XANTENNA_mux_top_ipin_8.mux_l1_in_0__A0 chanx_right_in[1] VGND VGND VPWR VPWR sky130_fd_sc_hd__diode_2
XPHY_120 VGND VPWR sky130_fd_sc_hd__tapvpwrvgnd_1
XFILLER_22_106 VGND VGND VPWR VPWR sky130_fd_sc_hd__decap_12
XANTENNA_mux_top_ipin_13.mux_l2_in_0__A0 chanx_left_in[2] VGND VGND VPWR VPWR sky130_fd_sc_hd__diode_2
XPHY_0 VGND VGND VPWR VPWR sky130_fd_sc_hd__decap_3
XFILLER_7_82 VGND VGND VPWR VPWR sky130_fd_sc_hd__fill_1
Xclkbuf_3_4_0_logical_tile_io_mode_io__0.ltile_phy_iopad_0.EMBEDDED_IO_HD_sky130_fd_sc_hd__dfxtp_1_mem.prog_clk
+ clkbuf_2_2_0_logical_tile_io_mode_io__0.ltile_phy_iopad_0.EMBEDDED_IO_HD_sky130_fd_sc_hd__dfxtp_1_mem.prog_clk/X
+ VGND VGND VPWR VPWR mem_top_ipin_9.sky130_fd_sc_hd__dfxtp_1_1_/CLK sky130_fd_sc_hd__clkbuf_1
Xmux_top_ipin_2.mux_l2_in_1_ chanx_left_in[7] chanx_right_in[3] mux_top_ipin_2.mux_l2_in_0_/S
+ VGND VGND VPWR VPWR mux_top_ipin_2.mux_l2_in_1_/X sky130_fd_sc_hd__mux2_1
XANTENNA_mux_top_ipin_11.mux_l2_in_2__A0 chanx_left_in[16] VGND VGND VPWR VPWR sky130_fd_sc_hd__diode_2
Xmux_top_ipin_14.mux_l4_in_0_ mux_top_ipin_14.mux_l3_in_1_/X mux_top_ipin_14.mux_l3_in_0_/X
+ mux_top_ipin_14.mux_l4_in_0_/S VGND VGND VPWR VPWR mux_top_ipin_14.mux_l4_in_0_/X
+ sky130_fd_sc_hd__mux2_1
X_60_ chanx_left_in[3] VGND VGND VPWR VPWR chanx_right_out[3] sky130_fd_sc_hd__buf_2
XANTENNA__42__A chanx_right_in[5] VGND VGND VPWR VPWR sky130_fd_sc_hd__diode_2
XFILLER_5_179 VGND VGND VPWR VPWR sky130_fd_sc_hd__decap_4
XANTENNA_mux_top_ipin_6.mux_l2_in_1__A0 chanx_left_in[11] VGND VGND VPWR VPWR sky130_fd_sc_hd__diode_2
Xmux_top_ipin_7.mux_l3_in_0_ mux_top_ipin_7.mux_l2_in_1_/X mux_top_ipin_7.mux_l2_in_0_/X
+ mux_top_ipin_7.mux_l3_in_0_/S VGND VGND VPWR VPWR mux_top_ipin_7.mux_l3_in_0_/X
+ sky130_fd_sc_hd__mux2_1
XANTENNA__37__A chanx_right_in[0] VGND VGND VPWR VPWR sky130_fd_sc_hd__diode_2
XANTENNA_mux_bottom_ipin_0.mux_l1_in_1__A0 chanx_right_in[2] VGND VGND VPWR VPWR sky130_fd_sc_hd__diode_2
X_43_ chanx_right_in[6] VGND VGND VPWR VPWR chanx_left_out[6] sky130_fd_sc_hd__buf_2
XFILLER_1_160 VGND VGND VPWR VPWR sky130_fd_sc_hd__decap_8
Xmux_top_ipin_7.sky130_fd_sc_hd__buf_4_0_ mux_top_ipin_7.mux_l4_in_0_/X VGND VGND
+ VPWR VPWR bottom_grid_pin_7_ sky130_fd_sc_hd__buf_4
Xmux_top_ipin_14.mux_l3_in_1_ mux_top_ipin_14.mux_l2_in_3_/X mux_top_ipin_14.mux_l2_in_2_/X
+ mux_top_ipin_14.mux_l3_in_1_/S VGND VGND VPWR VPWR mux_top_ipin_14.mux_l3_in_1_/X
+ sky130_fd_sc_hd__mux2_1
XFILLER_20_27 VGND VGND VPWR VPWR sky130_fd_sc_hd__decap_4
Xmux_top_ipin_7.mux_l2_in_1_ chanx_left_in[12] mux_top_ipin_7.mux_l1_in_2_/X mux_top_ipin_7.mux_l2_in_0_/S
+ VGND VGND VPWR VPWR mux_top_ipin_7.mux_l2_in_1_/X sky130_fd_sc_hd__mux2_1
X_26_ VGND VGND VPWR VPWR _26_/HI _26_/LO sky130_fd_sc_hd__conb_1
XFILLER_19_123 VGND VGND VPWR VPWR sky130_fd_sc_hd__decap_4
XFILLER_19_101 VGND VGND VPWR VPWR sky130_fd_sc_hd__decap_12
XANTENNA__50__A chanx_right_in[13] VGND VGND VPWR VPWR sky130_fd_sc_hd__diode_2
XANTENNA_mux_top_ipin_8.mux_l1_in_0__A1 chanx_left_in[1] VGND VGND VPWR VPWR sky130_fd_sc_hd__diode_2
XPHY_110 VGND VPWR sky130_fd_sc_hd__tapvpwrvgnd_1
Xmux_top_ipin_14.mux_l2_in_2_ chanx_left_in[19] chanx_right_in[11] mux_top_ipin_14.mux_l2_in_3_/S
+ VGND VGND VPWR VPWR mux_top_ipin_14.mux_l2_in_2_/X sky130_fd_sc_hd__mux2_1
XANTENNA__45__A chanx_right_in[8] VGND VGND VPWR VPWR sky130_fd_sc_hd__diode_2
XFILLER_22_118 VGND VGND VPWR VPWR sky130_fd_sc_hd__decap_6
Xmux_top_ipin_7.mux_l1_in_2_ chanx_right_in[8] chanx_left_in[8] mux_top_ipin_7.mux_l1_in_1_/S
+ VGND VGND VPWR VPWR mux_top_ipin_7.mux_l1_in_2_/X sky130_fd_sc_hd__mux2_1
XPHY_1 VGND VGND VPWR VPWR sky130_fd_sc_hd__decap_3
Xmux_top_ipin_2.mux_l2_in_0_ chanx_left_in[3] mux_top_ipin_2.mux_l1_in_0_/X mux_top_ipin_2.mux_l2_in_0_/S
+ VGND VGND VPWR VPWR mux_top_ipin_2.mux_l2_in_0_/X sky130_fd_sc_hd__mux2_1
XFILLER_8_177 VGND VGND VPWR VPWR sky130_fd_sc_hd__fill_1
XANTENNA_mux_top_ipin_11.mux_l2_in_2__A1 chanx_right_in[12] VGND VGND VPWR VPWR sky130_fd_sc_hd__diode_2
Xlogical_tile_io_mode_io__0.ltile_phy_iopad_0.EMBEDDED_IO_HD_0_.INV_SOC_DIR gfpga_pad_EMBEDDED_IO_HD_SOC_DIR
+ VGND VGND VPWR VPWR logical_tile_io_mode_io__0.ltile_phy_iopad_0.EMBEDDED_IO_HD_0_.INV_SOC_DIR/Y
+ sky130_fd_sc_hd__inv_1
XANTENNA_mux_top_ipin_6.mux_l2_in_1__A1 chanx_right_in[3] VGND VGND VPWR VPWR sky130_fd_sc_hd__diode_2
XANTENNA__53__A chanx_right_in[16] VGND VGND VPWR VPWR sky130_fd_sc_hd__diode_2
Xmem_top_ipin_1.sky130_fd_sc_hd__dfxtp_1_3_ mem_top_ipin_5.sky130_fd_sc_hd__dfxtp_1_2_/CLK
+ mux_top_ipin_1.mux_l3_in_0_/S VGND VGND VPWR VPWR mux_top_ipin_1.mux_l4_in_0_/S
+ sky130_fd_sc_hd__dfxtp_1
XANTENNA_mux_bottom_ipin_0.mux_l1_in_1__A1 chanx_left_in[2] VGND VGND VPWR VPWR sky130_fd_sc_hd__diode_2
X_42_ chanx_right_in[5] VGND VGND VPWR VPWR chanx_left_out[5] sky130_fd_sc_hd__buf_2
XANTENNA_mux_top_ipin_4.mux_l2_in_3__A1 chanx_right_in[15] VGND VGND VPWR VPWR sky130_fd_sc_hd__diode_2
Xmux_top_ipin_14.mux_l3_in_0_ mux_top_ipin_14.mux_l2_in_1_/X mux_top_ipin_14.mux_l2_in_0_/X
+ mux_top_ipin_14.mux_l3_in_1_/S VGND VGND VPWR VPWR mux_top_ipin_14.mux_l3_in_0_/X
+ sky130_fd_sc_hd__mux2_1
XANTENNA__48__A chanx_right_in[11] VGND VGND VPWR VPWR sky130_fd_sc_hd__diode_2
XANTENNA_mux_top_ipin_3.mux_l1_in_0__A0 chanx_right_in[0] VGND VGND VPWR VPWR sky130_fd_sc_hd__diode_2
Xmem_top_ipin_11.sky130_fd_sc_hd__dfxtp_1_3_ mem_top_ipin_9.sky130_fd_sc_hd__dfxtp_1_1_/CLK
+ mux_top_ipin_11.mux_l3_in_1_/S VGND VGND VPWR VPWR mux_top_ipin_11.mux_l4_in_0_/S
+ sky130_fd_sc_hd__dfxtp_1
Xmux_top_ipin_7.mux_l2_in_0_ mux_top_ipin_7.mux_l1_in_1_/X mux_top_ipin_7.mux_l1_in_0_/X
+ mux_top_ipin_7.mux_l2_in_0_/S VGND VGND VPWR VPWR mux_top_ipin_7.mux_l2_in_0_/X
+ sky130_fd_sc_hd__mux2_1
X_25_ VGND VGND VPWR VPWR _25_/HI _25_/LO sky130_fd_sc_hd__conb_1
XFILLER_19_113 VGND VGND VPWR VPWR sky130_fd_sc_hd__decap_8
XPHY_100 VGND VPWR sky130_fd_sc_hd__tapvpwrvgnd_1
Xmux_top_ipin_14.mux_l2_in_1_ chanx_left_in[11] chanx_right_in[3] mux_top_ipin_14.mux_l2_in_3_/S
+ VGND VGND VPWR VPWR mux_top_ipin_14.mux_l2_in_1_/X sky130_fd_sc_hd__mux2_1
Xmux_top_ipin_14.sky130_fd_sc_hd__buf_4_0_ mux_top_ipin_14.mux_l4_in_0_/X VGND VGND
+ VPWR VPWR bottom_grid_pin_14_ sky130_fd_sc_hd__buf_4
XPHY_111 VGND VPWR sky130_fd_sc_hd__tapvpwrvgnd_1
Xmux_top_ipin_7.mux_l1_in_1_ chanx_right_in[2] chanx_left_in[2] mux_top_ipin_7.mux_l1_in_1_/S
+ VGND VGND VPWR VPWR mux_top_ipin_7.mux_l1_in_1_/X sky130_fd_sc_hd__mux2_1
XANTENNA__61__A chanx_left_in[4] VGND VGND VPWR VPWR sky130_fd_sc_hd__diode_2
XPHY_2 VGND VGND VPWR VPWR sky130_fd_sc_hd__decap_3
XFILLER_21_141 VGND VGND VPWR VPWR sky130_fd_sc_hd__decap_12
XFILLER_16_93 VGND VGND VPWR VPWR sky130_fd_sc_hd__decap_3
XFILLER_12_141 VGND VGND VPWR VPWR sky130_fd_sc_hd__fill_1
XANTENNA_mux_top_ipin_1.mux_l2_in_1__A0 chanx_left_in[6] VGND VGND VPWR VPWR sky130_fd_sc_hd__diode_2
XANTENNA__56__A chanx_right_in[19] VGND VGND VPWR VPWR sky130_fd_sc_hd__diode_2
Xmem_top_ipin_4.sky130_fd_sc_hd__dfxtp_1_3_ mem_top_ipin_8.sky130_fd_sc_hd__dfxtp_1_3_/CLK
+ mux_top_ipin_4.mux_l3_in_1_/S VGND VGND VPWR VPWR mux_top_ipin_4.mux_l4_in_0_/S
+ sky130_fd_sc_hd__dfxtp_1
Xclkbuf_1_0_0_logical_tile_io_mode_io__0.ltile_phy_iopad_0.EMBEDDED_IO_HD_sky130_fd_sc_hd__dfxtp_1_mem.prog_clk
+ clkbuf_0_logical_tile_io_mode_io__0.ltile_phy_iopad_0.EMBEDDED_IO_HD_sky130_fd_sc_hd__dfxtp_1_mem.prog_clk/X
+ VGND VGND VPWR VPWR clkbuf_2_1_0_logical_tile_io_mode_io__0.ltile_phy_iopad_0.EMBEDDED_IO_HD_sky130_fd_sc_hd__dfxtp_1_mem.prog_clk/A
+ sky130_fd_sc_hd__clkbuf_1
Xmem_top_ipin_14.sky130_fd_sc_hd__dfxtp_1_3_ mem_top_ipin_15.sky130_fd_sc_hd__dfxtp_1_2_/CLK
+ mux_top_ipin_14.mux_l3_in_1_/S VGND VGND VPWR VPWR mux_top_ipin_14.mux_l4_in_0_/S
+ sky130_fd_sc_hd__dfxtp_1
XANTENNA_mux_top_ipin_15.mux_l1_in_2__A0 chanx_right_in[4] VGND VGND VPWR VPWR sky130_fd_sc_hd__diode_2
Xmem_top_ipin_1.sky130_fd_sc_hd__dfxtp_1_2_ mem_top_ipin_0.sky130_fd_sc_hd__dfxtp_1_0_/CLK
+ mux_top_ipin_1.mux_l2_in_1_/S VGND VGND VPWR VPWR mux_top_ipin_1.mux_l3_in_0_/S
+ sky130_fd_sc_hd__dfxtp_1
Xmux_top_ipin_2.mux_l1_in_0_ chanx_right_in[1] chanx_left_in[1] mux_top_ipin_2.mux_l1_in_0_/S
+ VGND VGND VPWR VPWR mux_top_ipin_2.mux_l1_in_0_/X sky130_fd_sc_hd__mux2_1
X_41_ chanx_right_in[4] VGND VGND VPWR VPWR chanx_left_out[4] sky130_fd_sc_hd__buf_2
XANTENNA_mux_top_ipin_3.mux_l1_in_0__A1 chanx_left_in[0] VGND VGND VPWR VPWR sky130_fd_sc_hd__diode_2
XANTENNA__64__A chanx_left_in[7] VGND VGND VPWR VPWR sky130_fd_sc_hd__diode_2
Xmem_top_ipin_11.sky130_fd_sc_hd__dfxtp_1_2_ mem_top_ipin_9.sky130_fd_sc_hd__dfxtp_1_1_/CLK
+ mux_top_ipin_11.mux_l2_in_0_/S VGND VGND VPWR VPWR mux_top_ipin_11.mux_l3_in_1_/S
+ sky130_fd_sc_hd__dfxtp_1
XANTENNA_mux_top_ipin_15.mux_l2_in_1__A0 chanx_left_in[10] VGND VGND VPWR VPWR sky130_fd_sc_hd__diode_2
X_24_ VGND VGND VPWR VPWR _24_/HI _24_/LO sky130_fd_sc_hd__conb_1
Xmem_top_ipin_7.sky130_fd_sc_hd__dfxtp_1_3_ mem_top_ipin_7.sky130_fd_sc_hd__dfxtp_1_1_/CLK
+ mux_top_ipin_7.mux_l3_in_0_/S VGND VGND VPWR VPWR mux_top_ipin_7.mux_l4_in_0_/S
+ sky130_fd_sc_hd__dfxtp_1
XANTENNA__59__A chanx_left_in[2] VGND VGND VPWR VPWR sky130_fd_sc_hd__diode_2
Xmux_top_ipin_14.mux_l2_in_0_ chanx_left_in[3] mux_top_ipin_14.mux_l1_in_0_/X mux_top_ipin_14.mux_l2_in_3_/S
+ VGND VGND VPWR VPWR mux_top_ipin_14.mux_l2_in_0_/X sky130_fd_sc_hd__mux2_1
Xmux_top_ipin_0.sky130_fd_sc_hd__buf_4_0_ mux_top_ipin_0.mux_l4_in_0_/X VGND VGND
+ VPWR VPWR bottom_grid_pin_0_ sky130_fd_sc_hd__buf_4
XPHY_112 VGND VPWR sky130_fd_sc_hd__tapvpwrvgnd_1
XPHY_101 VGND VPWR sky130_fd_sc_hd__tapvpwrvgnd_1
Xmux_top_ipin_7.mux_l1_in_0_ chanx_right_in[0] chanx_left_in[0] mux_top_ipin_7.mux_l1_in_1_/S
+ VGND VGND VPWR VPWR mux_top_ipin_7.mux_l1_in_0_/X sky130_fd_sc_hd__mux2_1
XANTENNA_mux_top_ipin_8.mux_l2_in_2__A0 chanx_left_in[19] VGND VGND VPWR VPWR sky130_fd_sc_hd__diode_2
XPHY_3 VGND VGND VPWR VPWR sky130_fd_sc_hd__decap_3
XFILLER_21_153 VGND VGND VPWR VPWR sky130_fd_sc_hd__decap_4
XANTENNA_mux_top_ipin_1.mux_l2_in_1__A1 chanx_right_in[2] VGND VGND VPWR VPWR sky130_fd_sc_hd__diode_2
Xmem_top_ipin_4.sky130_fd_sc_hd__dfxtp_1_2_ mem_top_ipin_8.sky130_fd_sc_hd__dfxtp_1_3_/CLK
+ mux_top_ipin_4.mux_l2_in_3_/S VGND VGND VPWR VPWR mux_top_ipin_4.mux_l3_in_1_/S
+ sky130_fd_sc_hd__dfxtp_1
XANTENNA__72__A chanx_left_in[15] VGND VGND VPWR VPWR sky130_fd_sc_hd__diode_2
Xmem_top_ipin_14.sky130_fd_sc_hd__dfxtp_1_2_ mem_top_ipin_15.sky130_fd_sc_hd__dfxtp_1_2_/CLK
+ mux_top_ipin_14.mux_l2_in_3_/S VGND VGND VPWR VPWR mux_top_ipin_14.mux_l3_in_1_/S
+ sky130_fd_sc_hd__dfxtp_1
XANTENNA__67__A chanx_left_in[10] VGND VGND VPWR VPWR sky130_fd_sc_hd__diode_2
XANTENNA_mux_top_ipin_15.mux_l1_in_2__A1 chanx_left_in[4] VGND VGND VPWR VPWR sky130_fd_sc_hd__diode_2
Xmem_top_ipin_1.sky130_fd_sc_hd__dfxtp_1_1_ mem_top_ipin_0.sky130_fd_sc_hd__dfxtp_1_0_/CLK
+ mux_top_ipin_1.mux_l1_in_0_/S VGND VGND VPWR VPWR mux_top_ipin_1.mux_l2_in_1_/S
+ sky130_fd_sc_hd__dfxtp_1
XFILLER_1_141 VGND VGND VPWR VPWR sky130_fd_sc_hd__fill_1
X_40_ chanx_right_in[3] VGND VGND VPWR VPWR chanx_left_out[3] sky130_fd_sc_hd__buf_2
X_23_ VGND VGND VPWR VPWR _23_/HI _23_/LO sky130_fd_sc_hd__conb_1
XFILLER_1_43 VGND VGND VPWR VPWR sky130_fd_sc_hd__fill_1
Xmem_top_ipin_11.sky130_fd_sc_hd__dfxtp_1_1_ mem_top_ipin_13.sky130_fd_sc_hd__dfxtp_1_2_/CLK
+ mux_top_ipin_11.mux_l1_in_0_/S VGND VGND VPWR VPWR mux_top_ipin_11.mux_l2_in_0_/S
+ sky130_fd_sc_hd__dfxtp_1
Xmem_top_ipin_7.sky130_fd_sc_hd__dfxtp_1_2_ mem_top_ipin_7.sky130_fd_sc_hd__dfxtp_1_2_/CLK
+ mux_top_ipin_7.mux_l2_in_0_/S VGND VGND VPWR VPWR mux_top_ipin_7.mux_l3_in_0_/S
+ sky130_fd_sc_hd__dfxtp_1
XANTENNA__75__A chanx_left_in[18] VGND VGND VPWR VPWR sky130_fd_sc_hd__diode_2
XANTENNA_mux_top_ipin_13.mux_l2_in_3__A1 chanx_right_in[18] VGND VGND VPWR VPWR sky130_fd_sc_hd__diode_2
XPHY_113 VGND VPWR sky130_fd_sc_hd__tapvpwrvgnd_1
XFILLER_21_51 VGND VGND VPWR VPWR sky130_fd_sc_hd__fill_1
XPHY_102 VGND VPWR sky130_fd_sc_hd__tapvpwrvgnd_1
XANTENNA_mux_top_ipin_12.mux_l1_in_0__A0 chanx_right_in[1] VGND VGND VPWR VPWR sky130_fd_sc_hd__diode_2
XFILLER_15_184 VGND VGND VPWR VPWR sky130_fd_sc_hd__decap_6
XANTENNA_mux_top_ipin_8.mux_l2_in_2__A1 chanx_right_in[13] VGND VGND VPWR VPWR sky130_fd_sc_hd__diode_2
XPHY_4 VGND VGND VPWR VPWR sky130_fd_sc_hd__decap_3
XFILLER_21_121 VGND VGND VPWR VPWR sky130_fd_sc_hd__fill_1
Xmem_top_ipin_4.sky130_fd_sc_hd__dfxtp_1_1_ mem_top_ipin_8.sky130_fd_sc_hd__dfxtp_1_3_/CLK
+ mux_top_ipin_4.mux_l1_in_2_/S VGND VGND VPWR VPWR mux_top_ipin_4.mux_l2_in_3_/S
+ sky130_fd_sc_hd__dfxtp_1
Xmux_top_ipin_14.mux_l1_in_0_ chanx_right_in[1] chanx_left_in[1] mux_top_ipin_14.mux_l1_in_0_/S
+ VGND VGND VPWR VPWR mux_top_ipin_14.mux_l1_in_0_/X sky130_fd_sc_hd__mux2_1
XFILLER_8_114 VGND VGND VPWR VPWR sky130_fd_sc_hd__fill_1
XFILLER_5_139 VGND VGND VPWR VPWR sky130_fd_sc_hd__fill_1
Xmem_top_ipin_14.sky130_fd_sc_hd__dfxtp_1_1_ mem_top_ipin_15.sky130_fd_sc_hd__dfxtp_1_2_/CLK
+ mux_top_ipin_14.mux_l1_in_0_/S VGND VGND VPWR VPWR mux_top_ipin_14.mux_l2_in_3_/S
+ sky130_fd_sc_hd__dfxtp_1
XFILLER_4_65 VGND VGND VPWR VPWR sky130_fd_sc_hd__fill_1
XFILLER_13_74 VGND VGND VPWR VPWR sky130_fd_sc_hd__fill_1
Xmem_top_ipin_1.sky130_fd_sc_hd__dfxtp_1_0_ mem_top_ipin_0.sky130_fd_sc_hd__dfxtp_1_0_/CLK
+ mux_top_ipin_0.mux_l4_in_0_/S VGND VGND VPWR VPWR mux_top_ipin_1.mux_l1_in_0_/S
+ sky130_fd_sc_hd__dfxtp_1
XANTENNA_mux_top_ipin_10.mux_l2_in_1__A0 chanx_left_in[7] VGND VGND VPWR VPWR sky130_fd_sc_hd__diode_2
XFILLER_1_175 VGND VGND VPWR VPWR sky130_fd_sc_hd__fill_2
XANTENNA_mux_top_ipin_5.mux_l2_in_0__A0 chanx_left_in[2] VGND VGND VPWR VPWR sky130_fd_sc_hd__diode_2
XANTENNA_mux_bottom_ipin_0.mux_l2_in_3__A1 chanx_right_in[16] VGND VGND VPWR VPWR
+ sky130_fd_sc_hd__diode_2
X_22_ VGND VGND VPWR VPWR _22_/HI _22_/LO sky130_fd_sc_hd__conb_1
Xmem_top_ipin_11.sky130_fd_sc_hd__dfxtp_1_0_ mem_top_ipin_13.sky130_fd_sc_hd__dfxtp_1_2_/CLK
+ mux_top_ipin_10.mux_l4_in_0_/S VGND VGND VPWR VPWR mux_top_ipin_11.mux_l1_in_0_/S
+ sky130_fd_sc_hd__dfxtp_1
XANTENNA_mux_top_ipin_3.mux_l2_in_2__A0 chanx_left_in[14] VGND VGND VPWR VPWR sky130_fd_sc_hd__diode_2
XFILLER_19_51 VGND VGND VPWR VPWR sky130_fd_sc_hd__fill_1
Xmem_top_ipin_7.sky130_fd_sc_hd__dfxtp_1_1_ mem_top_ipin_7.sky130_fd_sc_hd__dfxtp_1_1_/CLK
+ mux_top_ipin_7.mux_l1_in_1_/S VGND VGND VPWR VPWR mux_top_ipin_7.mux_l2_in_0_/S
+ sky130_fd_sc_hd__dfxtp_1
XFILLER_10_86 VGND VGND VPWR VPWR sky130_fd_sc_hd__fill_1
XFILLER_18_3 VGND VGND VPWR VPWR sky130_fd_sc_hd__decap_6
XPHY_114 VGND VPWR sky130_fd_sc_hd__tapvpwrvgnd_1
Xlogical_tile_io_mode_io__0.ltile_phy_iopad_0.EMBEDDED_IO_HD_0_.IN_PROTECT_GATE gfpga_pad_EMBEDDED_IO_HD_SOC_IN
+ logical_tile_io_mode_io__0.ltile_phy_iopad_0.EMBEDDED_IO_HD_0_.INV_SOC_DIR/Y VGND