* NGSPICE file created from cbx_1__1_.ext - technology: sky130A

* Black-box entry subcircuit for sky130_fd_sc_hd__dfxtp_1 abstract view
.subckt sky130_fd_sc_hd__dfxtp_1 CLK D VGND VNB VPB VPWR Q
.ends

* Black-box entry subcircuit for sky130_fd_sc_hd__fill_2 abstract view
.subckt sky130_fd_sc_hd__fill_2 VGND VNB VPB VPWR
.ends

* Black-box entry subcircuit for sky130_fd_sc_hd__decap_6 abstract view
.subckt sky130_fd_sc_hd__decap_6 VGND VNB VPB VPWR
.ends

* Black-box entry subcircuit for sky130_fd_sc_hd__mux2_1 abstract view
.subckt sky130_fd_sc_hd__mux2_1 A0 A1 S VGND VNB VPB VPWR X
.ends

* Black-box entry subcircuit for sky130_fd_sc_hd__buf_2 abstract view
.subckt sky130_fd_sc_hd__buf_2 A VGND VNB VPB VPWR X
.ends

* Black-box entry subcircuit for sky130_fd_sc_hd__buf_4 abstract view
.subckt sky130_fd_sc_hd__buf_4 A VGND VNB VPB VPWR X
.ends

* Black-box entry subcircuit for sky130_fd_sc_hd__decap_12 abstract view
.subckt sky130_fd_sc_hd__decap_12 VGND VNB VPB VPWR
.ends

* Black-box entry subcircuit for sky130_fd_sc_hd__decap_3 abstract view
.subckt sky130_fd_sc_hd__decap_3 VGND VNB VPB VPWR
.ends

* Black-box entry subcircuit for sky130_fd_sc_hd__decap_8 abstract view
.subckt sky130_fd_sc_hd__decap_8 VGND VNB VPB VPWR
.ends

* Black-box entry subcircuit for sky130_fd_sc_hd__clkbuf_1 abstract view
.subckt sky130_fd_sc_hd__clkbuf_1 A VGND VNB VPB VPWR X
.ends

* Black-box entry subcircuit for sky130_fd_sc_hd__fill_1 abstract view
.subckt sky130_fd_sc_hd__fill_1 VGND VNB VPB VPWR
.ends

* Black-box entry subcircuit for sky130_fd_sc_hd__decap_4 abstract view
.subckt sky130_fd_sc_hd__decap_4 VGND VNB VPB VPWR
.ends

* Black-box entry subcircuit for sky130_fd_sc_hd__clkbuf_16 abstract view
.subckt sky130_fd_sc_hd__clkbuf_16 A VGND VNB VPB VPWR X
.ends

* Black-box entry subcircuit for sky130_fd_sc_hd__buf_8 abstract view
.subckt sky130_fd_sc_hd__buf_8 A VGND VNB VPB VPWR X
.ends

* Black-box entry subcircuit for sky130_fd_sc_hd__conb_1 abstract view
.subckt sky130_fd_sc_hd__conb_1 VGND VNB VPB VPWR HI LO
.ends

* Black-box entry subcircuit for sky130_fd_sc_hd__tapvpwrvgnd_1 abstract view
.subckt sky130_fd_sc_hd__tapvpwrvgnd_1 VGND VPWR
.ends

* Black-box entry subcircuit for sky130_fd_sc_hd__diode_2 abstract view
.subckt sky130_fd_sc_hd__diode_2 DIODE VGND VNB VPB VPWR
.ends

.subckt cbx_1__1_ REGIN_FEEDTHROUGH REGOUT_FEEDTHROUGH SC_IN_BOT SC_IN_TOP SC_OUT_BOT
+ SC_OUT_TOP bottom_grid_pin_0_ bottom_grid_pin_10_ bottom_grid_pin_11_ bottom_grid_pin_12_
+ bottom_grid_pin_13_ bottom_grid_pin_14_ bottom_grid_pin_15_ bottom_grid_pin_1_ bottom_grid_pin_2_
+ bottom_grid_pin_3_ bottom_grid_pin_4_ bottom_grid_pin_5_ bottom_grid_pin_6_ bottom_grid_pin_7_
+ bottom_grid_pin_8_ bottom_grid_pin_9_ ccff_head ccff_tail chanx_left_in[0] chanx_left_in[10]
+ chanx_left_in[11] chanx_left_in[12] chanx_left_in[13] chanx_left_in[14] chanx_left_in[15]
+ chanx_left_in[16] chanx_left_in[17] chanx_left_in[18] chanx_left_in[19] chanx_left_in[1]
+ chanx_left_in[2] chanx_left_in[3] chanx_left_in[4] chanx_left_in[5] chanx_left_in[6]
+ chanx_left_in[7] chanx_left_in[8] chanx_left_in[9] chanx_left_out[0] chanx_left_out[10]
+ chanx_left_out[11] chanx_left_out[12] chanx_left_out[13] chanx_left_out[14] chanx_left_out[15]
+ chanx_left_out[16] chanx_left_out[17] chanx_left_out[18] chanx_left_out[19] chanx_left_out[1]
+ chanx_left_out[2] chanx_left_out[3] chanx_left_out[4] chanx_left_out[5] chanx_left_out[6]
+ chanx_left_out[7] chanx_left_out[8] chanx_left_out[9] chanx_right_in[0] chanx_right_in[10]
+ chanx_right_in[11] chanx_right_in[12] chanx_right_in[13] chanx_right_in[14] chanx_right_in[15]
+ chanx_right_in[16] chanx_right_in[17] chanx_right_in[18] chanx_right_in[19] chanx_right_in[1]
+ chanx_right_in[2] chanx_right_in[3] chanx_right_in[4] chanx_right_in[5] chanx_right_in[6]
+ chanx_right_in[7] chanx_right_in[8] chanx_right_in[9] chanx_right_out[0] chanx_right_out[10]
+ chanx_right_out[11] chanx_right_out[12] chanx_right_out[13] chanx_right_out[14]
+ chanx_right_out[15] chanx_right_out[16] chanx_right_out[17] chanx_right_out[18]
+ chanx_right_out[19] chanx_right_out[1] chanx_right_out[2] chanx_right_out[3] chanx_right_out[4]
+ chanx_right_out[5] chanx_right_out[6] chanx_right_out[7] chanx_right_out[8] chanx_right_out[9]
+ clk_1_E_in clk_1_N_out clk_1_S_out clk_1_W_in clk_2_E_in clk_2_E_out clk_2_W_in
+ clk_2_W_out clk_3_E_in clk_3_E_out clk_3_W_in clk_3_W_out prog_clk_0_N_in prog_clk_0_W_out
+ prog_clk_1_E_in prog_clk_1_N_out prog_clk_1_S_out prog_clk_1_W_in prog_clk_2_E_in
+ prog_clk_2_E_out prog_clk_2_W_in prog_clk_2_W_out prog_clk_3_E_in prog_clk_3_E_out
+ prog_clk_3_W_in prog_clk_3_W_out VPWR VGND
Xmem_top_ipin_8.sky130_fd_sc_hd__dfxtp_1_0_ clkbuf_3_3_0_mem_top_ipin_0.prog_clk/X
+ mux_top_ipin_7.mux_l4_in_0_/S VGND VGND VPWR VPWR mux_top_ipin_8.mux_l1_in_2_/S
+ sky130_fd_sc_hd__dfxtp_1
XFILLER_13_188 VGND VGND VPWR VPWR sky130_fd_sc_hd__fill_2
XFILLER_13_166 VGND VGND VPWR VPWR sky130_fd_sc_hd__decap_6
XFILLER_3_78 VGND VGND VPWR VPWR sky130_fd_sc_hd__decap_6
Xmux_top_ipin_13.mux_l3_in_0_ mux_top_ipin_13.mux_l2_in_1_/X mux_top_ipin_13.mux_l2_in_0_/X
+ mux_top_ipin_13.mux_l3_in_1_/S VGND VGND VPWR VPWR mux_top_ipin_13.mux_l3_in_0_/X
+ sky130_fd_sc_hd__mux2_1
X_66_ chanx_left_in[8] VGND VGND VPWR VPWR chanx_right_out[8] sky130_fd_sc_hd__buf_2
Xclk_1_N_FTB01 clk_1_E_in VGND VGND VPWR VPWR clk_1_N_out sky130_fd_sc_hd__buf_4
Xmux_top_ipin_6.mux_l2_in_0_ chanx_left_in[2] mux_top_ipin_6.mux_l1_in_0_/X mux_top_ipin_6.mux_l2_in_1_/S
+ VGND VGND VPWR VPWR mux_top_ipin_6.mux_l2_in_0_/X sky130_fd_sc_hd__mux2_1
XFILLER_2_154 VGND VGND VPWR VPWR sky130_fd_sc_hd__decap_12
XFILLER_2_187 VGND VGND VPWR VPWR sky130_fd_sc_hd__decap_3
X_49_ chanx_right_in[5] VGND VGND VPWR VPWR chanx_left_out[5] sky130_fd_sc_hd__buf_2
Xmux_top_ipin_13.mux_l2_in_1_ chanx_left_in[9] chanx_right_in[3] mux_top_ipin_13.mux_l2_in_0_/S
+ VGND VGND VPWR VPWR mux_top_ipin_13.mux_l2_in_1_/X sky130_fd_sc_hd__mux2_1
XFILLER_20_32 VGND VGND VPWR VPWR sky130_fd_sc_hd__decap_12
XFILLER_20_21 VGND VGND VPWR VPWR sky130_fd_sc_hd__decap_8
XFILLER_20_10 VGND VGND VPWR VPWR sky130_fd_sc_hd__fill_2
Xclkbuf_3_2_0_mem_top_ipin_0.prog_clk clkbuf_3_2_0_mem_top_ipin_0.prog_clk/A VGND
+ VGND VPWR VPWR clkbuf_3_2_0_mem_top_ipin_0.prog_clk/X sky130_fd_sc_hd__clkbuf_1
XFILLER_13_3 VGND VGND VPWR VPWR sky130_fd_sc_hd__fill_1
XFILLER_6_45 VGND VGND VPWR VPWR sky130_fd_sc_hd__fill_2
XFILLER_6_56 VGND VGND VPWR VPWR sky130_fd_sc_hd__decap_3
XFILLER_6_78 VGND VGND VPWR VPWR sky130_fd_sc_hd__fill_2
XFILLER_6_89 VGND VGND VPWR VPWR sky130_fd_sc_hd__decap_3
XFILLER_16_120 VGND VGND VPWR VPWR sky130_fd_sc_hd__decap_4
XFILLER_22_156 VGND VGND VPWR VPWR sky130_fd_sc_hd__decap_12
Xmux_top_ipin_1.mux_l1_in_0_ chanx_right_in[1] chanx_left_in[1] mux_top_ipin_1.mux_l1_in_0_/S
+ VGND VGND VPWR VPWR mux_top_ipin_1.mux_l1_in_0_/X sky130_fd_sc_hd__mux2_1
XFILLER_3_35 VGND VGND VPWR VPWR sky130_fd_sc_hd__decap_3
XFILLER_12_99 VGND VGND VPWR VPWR sky130_fd_sc_hd__fill_1
XFILLER_10_115 VGND VGND VPWR VPWR sky130_fd_sc_hd__fill_2
X_65_ chanx_left_in[9] VGND VGND VPWR VPWR chanx_right_out[9] sky130_fd_sc_hd__buf_2
Xprog_clk_2_W_FTB01 prog_clk_2_E_in VGND VGND VPWR VPWR prog_clk_2_W_out sky130_fd_sc_hd__buf_4
XFILLER_0_69 VGND VGND VPWR VPWR sky130_fd_sc_hd__decap_4
XFILLER_2_166 VGND VGND VPWR VPWR sky130_fd_sc_hd__fill_1
XFILLER_9_78 VGND VGND VPWR VPWR sky130_fd_sc_hd__fill_2
X_48_ chanx_right_in[6] VGND VGND VPWR VPWR chanx_left_out[6] sky130_fd_sc_hd__buf_2
Xmux_top_ipin_13.mux_l2_in_0_ chanx_left_in[3] mux_top_ipin_13.mux_l1_in_0_/X mux_top_ipin_13.mux_l2_in_0_/S
+ VGND VGND VPWR VPWR mux_top_ipin_13.mux_l2_in_0_/X sky130_fd_sc_hd__mux2_1
Xmux_top_ipin_6.mux_l1_in_0_ chanx_right_in[0] chanx_left_in[0] mux_top_ipin_6.mux_l1_in_0_/S
+ VGND VGND VPWR VPWR mux_top_ipin_6.mux_l1_in_0_/X sky130_fd_sc_hd__mux2_1
XFILLER_20_44 VGND VGND VPWR VPWR sky130_fd_sc_hd__decap_3
XFILLER_19_184 VGND VGND VPWR VPWR sky130_fd_sc_hd__decap_6
Xclkbuf_2_3_0_mem_top_ipin_0.prog_clk clkbuf_2_3_0_mem_top_ipin_0.prog_clk/A VGND
+ VGND VPWR VPWR clkbuf_3_7_0_mem_top_ipin_0.prog_clk/A sky130_fd_sc_hd__clkbuf_1
XFILLER_22_168 VGND VGND VPWR VPWR sky130_fd_sc_hd__decap_12
Xclkbuf_0_mem_top_ipin_0.prog_clk prog_clk_0_FTB00/X VGND VGND VPWR VPWR clkbuf_0_mem_top_ipin_0.prog_clk/X
+ sky130_fd_sc_hd__clkbuf_16
XFILLER_3_47 VGND VGND VPWR VPWR sky130_fd_sc_hd__fill_2
XFILLER_3_58 VGND VGND VPWR VPWR sky130_fd_sc_hd__decap_3
X_64_ chanx_left_in[10] VGND VGND VPWR VPWR chanx_right_out[10] sky130_fd_sc_hd__buf_2
XFILLER_5_120 VGND VGND VPWR VPWR sky130_fd_sc_hd__fill_2
XFILLER_4_90 VGND VGND VPWR VPWR sky130_fd_sc_hd__fill_2
Xmux_top_ipin_4.sky130_fd_sc_hd__buf_4_0_ mux_top_ipin_4.mux_l4_in_0_/X VGND VGND
+ VPWR VPWR bottom_grid_pin_4_ sky130_fd_sc_hd__buf_4
XFILLER_2_134 VGND VGND VPWR VPWR sky130_fd_sc_hd__fill_2
XFILLER_2_145 VGND VGND VPWR VPWR sky130_fd_sc_hd__decap_8
XFILLER_3_3 VGND VGND VPWR VPWR sky130_fd_sc_hd__decap_4
X_47_ chanx_right_in[7] VGND VGND VPWR VPWR chanx_left_out[7] sky130_fd_sc_hd__buf_2
XFILLER_18_77 VGND VGND VPWR VPWR sky130_fd_sc_hd__decap_4
XFILLER_18_66 VGND VGND VPWR VPWR sky130_fd_sc_hd__fill_2
XFILLER_20_67 VGND VGND VPWR VPWR sky130_fd_sc_hd__decap_12
XFILLER_20_56 VGND VGND VPWR VPWR sky130_fd_sc_hd__fill_2
Xclk_2_E_FTB01 clk_2_E_in VGND VGND VPWR VPWR clk_2_E_out sky130_fd_sc_hd__buf_4
XFILLER_1_91 VGND VGND VPWR VPWR sky130_fd_sc_hd__fill_2
XFILLER_1_80 VGND VGND VPWR VPWR sky130_fd_sc_hd__fill_2
Xmux_top_ipin_13.mux_l1_in_0_ chanx_right_in[1] chanx_left_in[1] mux_top_ipin_13.mux_l1_in_0_/S
+ VGND VGND VPWR VPWR mux_top_ipin_13.mux_l1_in_0_/X sky130_fd_sc_hd__mux2_1
XFILLER_15_12 VGND VGND VPWR VPWR sky130_fd_sc_hd__fill_2
XFILLER_22_125 VGND VGND VPWR VPWR sky130_fd_sc_hd__decap_12
XFILLER_16_188 VGND VGND VPWR VPWR sky130_fd_sc_hd__fill_2
X_80_ prog_clk_3_E_in VGND VGND VPWR VPWR prog_clk_3_W_in sky130_fd_sc_hd__buf_2
XFILLER_8_151 VGND VGND VPWR VPWR sky130_fd_sc_hd__fill_2
XFILLER_12_79 VGND VGND VPWR VPWR sky130_fd_sc_hd__fill_2
X_63_ chanx_left_in[11] VGND VGND VPWR VPWR chanx_right_out[11] sky130_fd_sc_hd__buf_2
Xprog_clk_0_FTB00 prog_clk_0_N_in VGND VGND VPWR VPWR prog_clk_0_FTB00/X sky130_fd_sc_hd__buf_8
XFILLER_2_179 VGND VGND VPWR VPWR sky130_fd_sc_hd__fill_2
X_46_ chanx_right_in[8] VGND VGND VPWR VPWR chanx_left_out[8] sky130_fd_sc_hd__buf_2
X_29_ VGND VGND VPWR VPWR _29_/HI _29_/LO sky130_fd_sc_hd__conb_1
XFILLER_20_79 VGND VGND VPWR VPWR sky130_fd_sc_hd__decap_12
Xmux_top_ipin_11.sky130_fd_sc_hd__buf_4_0_ mux_top_ipin_11.mux_l4_in_0_/X VGND VGND
+ VPWR VPWR bottom_grid_pin_11_ sky130_fd_sc_hd__buf_4
XFILLER_19_120 VGND VGND VPWR VPWR sky130_fd_sc_hd__fill_2
XFILLER_10_90 VGND VGND VPWR VPWR sky130_fd_sc_hd__fill_2
XFILLER_11_3 VGND VGND VPWR VPWR sky130_fd_sc_hd__fill_1
XFILLER_22_137 VGND VGND VPWR VPWR sky130_fd_sc_hd__decap_12
XFILLER_7_80 VGND VGND VPWR VPWR sky130_fd_sc_hd__fill_2
XFILLER_21_181 VGND VGND VPWR VPWR sky130_fd_sc_hd__fill_2
XFILLER_13_148 VGND VGND VPWR VPWR sky130_fd_sc_hd__fill_2
Xmux_top_ipin_2.mux_l2_in_3_ _27_/HI chanx_right_in[14] mux_top_ipin_2.mux_l2_in_1_/S
+ VGND VGND VPWR VPWR mux_top_ipin_2.mux_l2_in_3_/X sky130_fd_sc_hd__mux2_1
XFILLER_12_36 VGND VGND VPWR VPWR sky130_fd_sc_hd__decap_4
XFILLER_12_25 VGND VGND VPWR VPWR sky130_fd_sc_hd__decap_6
XFILLER_10_129 VGND VGND VPWR VPWR sky130_fd_sc_hd__fill_2
XFILLER_8_174 VGND VGND VPWR VPWR sky130_fd_sc_hd__fill_2
XFILLER_8_185 VGND VGND VPWR VPWR sky130_fd_sc_hd__decap_4
X_62_ chanx_left_in[12] VGND VGND VPWR VPWR chanx_right_out[12] sky130_fd_sc_hd__buf_2
XFILLER_5_188 VGND VGND VPWR VPWR sky130_fd_sc_hd__fill_2
XFILLER_9_15 VGND VGND VPWR VPWR sky130_fd_sc_hd__fill_2
XFILLER_9_26 VGND VGND VPWR VPWR sky130_fd_sc_hd__fill_2
XFILLER_9_37 VGND VGND VPWR VPWR sky130_fd_sc_hd__fill_2
XFILLER_9_48 VGND VGND VPWR VPWR sky130_fd_sc_hd__fill_2
XFILLER_9_59 VGND VGND VPWR VPWR sky130_fd_sc_hd__fill_2
Xmux_top_ipin_2.mux_l4_in_0_ mux_top_ipin_2.mux_l3_in_1_/X mux_top_ipin_2.mux_l3_in_0_/X
+ mux_top_ipin_2.mux_l4_in_0_/S VGND VGND VPWR VPWR mux_top_ipin_2.mux_l4_in_0_/X
+ sky130_fd_sc_hd__mux2_1
X_45_ chanx_right_in[9] VGND VGND VPWR VPWR chanx_left_out[9] sky130_fd_sc_hd__buf_2
X_28_ VGND VGND VPWR VPWR _28_/HI _28_/LO sky130_fd_sc_hd__conb_1
Xmux_top_ipin_7.mux_l2_in_3_ _16_/HI chanx_right_in[17] mux_top_ipin_7.mux_l2_in_0_/S
+ VGND VGND VPWR VPWR mux_top_ipin_7.mux_l2_in_3_/X sky130_fd_sc_hd__mux2_1
XFILLER_19_132 VGND VGND VPWR VPWR sky130_fd_sc_hd__decap_3
Xmux_top_ipin_2.mux_l3_in_1_ mux_top_ipin_2.mux_l2_in_3_/X mux_top_ipin_2.mux_l2_in_2_/X
+ mux_top_ipin_2.mux_l3_in_0_/S VGND VGND VPWR VPWR mux_top_ipin_2.mux_l3_in_1_/X
+ sky130_fd_sc_hd__mux2_1
XFILLER_16_146 VGND VGND VPWR VPWR sky130_fd_sc_hd__fill_2
XFILLER_16_124 VGND VGND VPWR VPWR sky130_fd_sc_hd__fill_1
Xclkbuf_3_5_0_mem_top_ipin_0.prog_clk clkbuf_3_5_0_mem_top_ipin_0.prog_clk/A VGND
+ VGND VPWR VPWR clkbuf_3_5_0_mem_top_ipin_0.prog_clk/X sky130_fd_sc_hd__clkbuf_1
XFILLER_22_149 VGND VGND VPWR VPWR sky130_fd_sc_hd__decap_6
XFILLER_21_160 VGND VGND VPWR VPWR sky130_fd_sc_hd__decap_8
XFILLER_3_17 VGND VGND VPWR VPWR sky130_fd_sc_hd__fill_2
Xmux_top_ipin_2.mux_l2_in_2_ chanx_left_in[14] chanx_right_in[6] mux_top_ipin_2.mux_l2_in_1_/S
+ VGND VGND VPWR VPWR mux_top_ipin_2.mux_l2_in_2_/X sky130_fd_sc_hd__mux2_1
Xmux_top_ipin_7.mux_l4_in_0_ mux_top_ipin_7.mux_l3_in_1_/X mux_top_ipin_7.mux_l3_in_0_/X
+ mux_top_ipin_7.mux_l4_in_0_/S VGND VGND VPWR VPWR mux_top_ipin_7.mux_l4_in_0_/X
+ sky130_fd_sc_hd__mux2_1
XFILLER_8_120 VGND VGND VPWR VPWR sky130_fd_sc_hd__fill_2
X_61_ chanx_left_in[13] VGND VGND VPWR VPWR chanx_right_out[13] sky130_fd_sc_hd__buf_2
XFILLER_5_167 VGND VGND VPWR VPWR sky130_fd_sc_hd__fill_2
XFILLER_5_178 VGND VGND VPWR VPWR sky130_fd_sc_hd__decap_4
XFILLER_4_60 VGND VGND VPWR VPWR sky130_fd_sc_hd__fill_2
Xmux_top_ipin_7.mux_l3_in_1_ mux_top_ipin_7.mux_l2_in_3_/X mux_top_ipin_7.mux_l2_in_2_/X
+ mux_top_ipin_7.mux_l3_in_0_/S VGND VGND VPWR VPWR mux_top_ipin_7.mux_l3_in_1_/X
+ sky130_fd_sc_hd__mux2_1
XFILLER_0_29 VGND VGND VPWR VPWR sky130_fd_sc_hd__fill_2
XFILLER_0_18 VGND VGND VPWR VPWR sky130_fd_sc_hd__fill_2
XFILLER_1_181 VGND VGND VPWR VPWR sky130_fd_sc_hd__fill_2
X_44_ chanx_right_in[10] VGND VGND VPWR VPWR chanx_left_out[10] sky130_fd_sc_hd__buf_2
XFILLER_18_58 VGND VGND VPWR VPWR sky130_fd_sc_hd__decap_8
XFILLER_1_3 VGND VGND VPWR VPWR sky130_fd_sc_hd__decap_4
XFILLER_1_72 VGND VGND VPWR VPWR sky130_fd_sc_hd__fill_2
X_27_ VGND VGND VPWR VPWR _27_/HI _27_/LO sky130_fd_sc_hd__conb_1
Xmux_top_ipin_7.mux_l2_in_2_ chanx_left_in[17] chanx_right_in[11] mux_top_ipin_7.mux_l2_in_0_/S
+ VGND VGND VPWR VPWR mux_top_ipin_7.mux_l2_in_2_/X sky130_fd_sc_hd__mux2_1
XFILLER_19_144 VGND VGND VPWR VPWR sky130_fd_sc_hd__decap_12
XFILLER_13_8 VGND VGND VPWR VPWR sky130_fd_sc_hd__fill_2
Xmux_top_ipin_2.mux_l3_in_0_ mux_top_ipin_2.mux_l2_in_1_/X mux_top_ipin_2.mux_l2_in_0_/X
+ mux_top_ipin_2.mux_l3_in_0_/S VGND VGND VPWR VPWR mux_top_ipin_2.mux_l3_in_0_/X
+ sky130_fd_sc_hd__mux2_1
XFILLER_15_59 VGND VGND VPWR VPWR sky130_fd_sc_hd__fill_2
XFILLER_15_48 VGND VGND VPWR VPWR sky130_fd_sc_hd__fill_2
Xmux_top_ipin_14.mux_l2_in_3_ _25_/HI chanx_right_in[18] mux_top_ipin_14.mux_l2_in_0_/S
+ VGND VGND VPWR VPWR mux_top_ipin_14.mux_l2_in_3_/X sky130_fd_sc_hd__mux2_1
XPHY_120 VGND VPWR sky130_fd_sc_hd__tapvpwrvgnd_1
XFILLER_22_106 VGND VGND VPWR VPWR sky130_fd_sc_hd__decap_12
XPHY_0 VGND VGND VPWR VPWR sky130_fd_sc_hd__decap_3
XFILLER_7_60 VGND VGND VPWR VPWR sky130_fd_sc_hd__fill_1
XFILLER_13_139 VGND VGND VPWR VPWR sky130_fd_sc_hd__fill_2
Xmux_top_ipin_2.mux_l2_in_1_ chanx_left_in[6] chanx_right_in[2] mux_top_ipin_2.mux_l2_in_1_/S
+ VGND VGND VPWR VPWR mux_top_ipin_2.mux_l2_in_1_/X sky130_fd_sc_hd__mux2_1
XFILLER_8_154 VGND VGND VPWR VPWR sky130_fd_sc_hd__decap_4
XFILLER_12_49 VGND VGND VPWR VPWR sky130_fd_sc_hd__fill_2
X_60_ chanx_left_in[14] VGND VGND VPWR VPWR chanx_right_out[14] sky130_fd_sc_hd__buf_2
Xmux_top_ipin_14.mux_l4_in_0_ mux_top_ipin_14.mux_l3_in_1_/X mux_top_ipin_14.mux_l3_in_0_/X
+ mux_top_ipin_14.mux_l4_in_0_/S VGND VGND VPWR VPWR mux_top_ipin_14.mux_l4_in_0_/X
+ sky130_fd_sc_hd__mux2_1
Xclk_3_W_FTB01 clk_3_E_in VGND VGND VPWR VPWR clk_3_W_out sky130_fd_sc_hd__buf_4
Xmux_top_ipin_7.mux_l3_in_0_ mux_top_ipin_7.mux_l2_in_1_/X mux_top_ipin_7.mux_l2_in_0_/X
+ mux_top_ipin_7.mux_l3_in_0_/S VGND VGND VPWR VPWR mux_top_ipin_7.mux_l3_in_0_/X
+ sky130_fd_sc_hd__mux2_1
XFILLER_2_116 VGND VGND VPWR VPWR sky130_fd_sc_hd__fill_2
XFILLER_3_7 VGND VGND VPWR VPWR sky130_fd_sc_hd__fill_1
X_43_ chanx_right_in[11] VGND VGND VPWR VPWR chanx_left_out[11] sky130_fd_sc_hd__buf_2
Xmux_top_ipin_7.sky130_fd_sc_hd__buf_4_0_ mux_top_ipin_7.mux_l4_in_0_/X VGND VGND
+ VPWR VPWR bottom_grid_pin_7_ sky130_fd_sc_hd__buf_4
Xmux_top_ipin_14.mux_l3_in_1_ mux_top_ipin_14.mux_l2_in_3_/X mux_top_ipin_14.mux_l2_in_2_/X
+ mux_top_ipin_14.mux_l3_in_1_/S VGND VGND VPWR VPWR mux_top_ipin_14.mux_l3_in_1_/X
+ sky130_fd_sc_hd__mux2_1
Xmux_top_ipin_7.mux_l2_in_1_ chanx_left_in[11] mux_top_ipin_7.mux_l1_in_2_/X mux_top_ipin_7.mux_l2_in_0_/S
+ VGND VGND VPWR VPWR mux_top_ipin_7.mux_l2_in_1_/X sky130_fd_sc_hd__mux2_1
X_26_ VGND VGND VPWR VPWR _26_/HI _26_/LO sky130_fd_sc_hd__conb_1
XFILLER_1_62 VGND VGND VPWR VPWR sky130_fd_sc_hd__decap_4
XFILLER_19_156 VGND VGND VPWR VPWR sky130_fd_sc_hd__decap_12
XFILLER_19_112 VGND VGND VPWR VPWR sky130_fd_sc_hd__decap_8
XFILLER_10_93 VGND VGND VPWR VPWR sky130_fd_sc_hd__fill_2
XFILLER_6_29 VGND VGND VPWR VPWR sky130_fd_sc_hd__fill_2
XPHY_110 VGND VPWR sky130_fd_sc_hd__tapvpwrvgnd_1
Xmux_top_ipin_14.mux_l2_in_2_ chanx_left_in[18] chanx_right_in[10] mux_top_ipin_14.mux_l2_in_0_/S
+ VGND VGND VPWR VPWR mux_top_ipin_14.mux_l2_in_2_/X sky130_fd_sc_hd__mux2_1
XFILLER_22_118 VGND VGND VPWR VPWR sky130_fd_sc_hd__decap_6
XFILLER_21_81 VGND VGND VPWR VPWR sky130_fd_sc_hd__decap_12
XFILLER_15_181 VGND VGND VPWR VPWR sky130_fd_sc_hd__fill_2
Xmux_top_ipin_7.mux_l1_in_2_ chanx_right_in[7] chanx_left_in[7] mux_top_ipin_7.mux_l1_in_0_/S
+ VGND VGND VPWR VPWR mux_top_ipin_7.mux_l1_in_2_/X sky130_fd_sc_hd__mux2_1
XPHY_1 VGND VGND VPWR VPWR sky130_fd_sc_hd__decap_3
XFILLER_13_118 VGND VGND VPWR VPWR sky130_fd_sc_hd__decap_4
Xmux_top_ipin_2.mux_l2_in_0_ chanx_left_in[2] mux_top_ipin_2.mux_l1_in_0_/X mux_top_ipin_2.mux_l2_in_1_/S
+ VGND VGND VPWR VPWR mux_top_ipin_2.mux_l2_in_0_/X sky130_fd_sc_hd__mux2_1
XFILLER_12_151 VGND VGND VPWR VPWR sky130_fd_sc_hd__fill_2
XFILLER_12_140 VGND VGND VPWR VPWR sky130_fd_sc_hd__fill_2
XFILLER_4_84 VGND VGND VPWR VPWR sky130_fd_sc_hd__fill_2
Xmem_top_ipin_1.sky130_fd_sc_hd__dfxtp_1_3_ clkbuf_3_1_0_mem_top_ipin_0.prog_clk/X
+ mux_top_ipin_1.mux_l3_in_0_/S VGND VGND VPWR VPWR mux_top_ipin_1.mux_l4_in_0_/S
+ sky130_fd_sc_hd__dfxtp_1
X_42_ chanx_right_in[12] VGND VGND VPWR VPWR chanx_left_out[12] sky130_fd_sc_hd__buf_2
Xmem_top_ipin_11.sky130_fd_sc_hd__dfxtp_1_3_ clkbuf_3_6_0_mem_top_ipin_0.prog_clk/X
+ mux_top_ipin_11.mux_l3_in_1_/S VGND VGND VPWR VPWR mux_top_ipin_11.mux_l4_in_0_/S
+ sky130_fd_sc_hd__dfxtp_1
Xmux_top_ipin_14.mux_l3_in_0_ mux_top_ipin_14.mux_l2_in_1_/X mux_top_ipin_14.mux_l2_in_0_/X
+ mux_top_ipin_14.mux_l3_in_1_/S VGND VGND VPWR VPWR mux_top_ipin_14.mux_l3_in_0_/X
+ sky130_fd_sc_hd__mux2_1
Xmux_top_ipin_7.mux_l2_in_0_ mux_top_ipin_7.mux_l1_in_1_/X mux_top_ipin_7.mux_l1_in_0_/X
+ mux_top_ipin_7.mux_l2_in_0_/S VGND VGND VPWR VPWR mux_top_ipin_7.mux_l2_in_0_/X
+ sky130_fd_sc_hd__mux2_1
X_25_ VGND VGND VPWR VPWR _25_/HI _25_/LO sky130_fd_sc_hd__conb_1
XFILLER_19_102 VGND VGND VPWR VPWR sky130_fd_sc_hd__fill_1
XFILLER_10_72 VGND VGND VPWR VPWR sky130_fd_sc_hd__fill_2
XFILLER_10_61 VGND VGND VPWR VPWR sky130_fd_sc_hd__fill_2
XFILLER_10_50 VGND VGND VPWR VPWR sky130_fd_sc_hd__fill_2
XFILLER_19_168 VGND VGND VPWR VPWR sky130_fd_sc_hd__decap_12
XPHY_100 VGND VPWR sky130_fd_sc_hd__tapvpwrvgnd_1
Xmux_top_ipin_14.sky130_fd_sc_hd__buf_4_0_ mux_top_ipin_14.mux_l4_in_0_/X VGND VGND
+ VPWR VPWR bottom_grid_pin_14_ sky130_fd_sc_hd__buf_4
Xmux_top_ipin_14.mux_l2_in_1_ chanx_left_in[10] chanx_right_in[2] mux_top_ipin_14.mux_l2_in_0_/S
+ VGND VGND VPWR VPWR mux_top_ipin_14.mux_l2_in_1_/X sky130_fd_sc_hd__mux2_1
XFILLER_21_93 VGND VGND VPWR VPWR sky130_fd_sc_hd__decap_12
XFILLER_21_71 VGND VGND VPWR VPWR sky130_fd_sc_hd__decap_4
XPHY_111 VGND VPWR sky130_fd_sc_hd__tapvpwrvgnd_1
Xmux_top_ipin_7.mux_l1_in_1_ chanx_right_in[3] chanx_left_in[3] mux_top_ipin_7.mux_l1_in_0_/S
+ VGND VGND VPWR VPWR mux_top_ipin_7.mux_l1_in_1_/X sky130_fd_sc_hd__mux2_1
XPHY_2 VGND VGND VPWR VPWR sky130_fd_sc_hd__decap_3
XFILLER_21_141 VGND VGND VPWR VPWR sky130_fd_sc_hd__fill_1
XFILLER_7_62 VGND VGND VPWR VPWR sky130_fd_sc_hd__decap_3
Xmem_top_ipin_4.sky130_fd_sc_hd__dfxtp_1_3_ clkbuf_3_2_0_mem_top_ipin_0.prog_clk/X
+ mux_top_ipin_4.mux_l3_in_1_/S VGND VGND VPWR VPWR mux_top_ipin_4.mux_l4_in_0_/S
+ sky130_fd_sc_hd__dfxtp_1
XFILLER_8_189 VGND VGND VPWR VPWR sky130_fd_sc_hd__fill_1
XFILLER_4_30 VGND VGND VPWR VPWR sky130_fd_sc_hd__fill_1
Xmem_top_ipin_14.sky130_fd_sc_hd__dfxtp_1_3_ clkbuf_3_5_0_mem_top_ipin_0.prog_clk/X
+ mux_top_ipin_14.mux_l3_in_1_/S VGND VGND VPWR VPWR mux_top_ipin_14.mux_l4_in_0_/S
+ sky130_fd_sc_hd__dfxtp_1
Xmux_top_ipin_2.mux_l1_in_0_ chanx_right_in[0] chanx_left_in[0] mux_top_ipin_2.mux_l1_in_0_/S
+ VGND VGND VPWR VPWR mux_top_ipin_2.mux_l1_in_0_/X sky130_fd_sc_hd__mux2_1
Xmem_top_ipin_1.sky130_fd_sc_hd__dfxtp_1_2_ clkbuf_3_0_0_mem_top_ipin_0.prog_clk/X
+ mux_top_ipin_1.mux_l2_in_0_/S VGND VGND VPWR VPWR mux_top_ipin_1.mux_l3_in_0_/S
+ sky130_fd_sc_hd__dfxtp_1
XFILLER_13_83 VGND VGND VPWR VPWR sky130_fd_sc_hd__fill_1
X_41_ chanx_right_in[13] VGND VGND VPWR VPWR chanx_left_out[13] sky130_fd_sc_hd__buf_2
XFILLER_1_173 VGND VGND VPWR VPWR sky130_fd_sc_hd__fill_2
XFILLER_1_140 VGND VGND VPWR VPWR sky130_fd_sc_hd__fill_2
Xmem_top_ipin_11.sky130_fd_sc_hd__dfxtp_1_2_ clkbuf_3_6_0_mem_top_ipin_0.prog_clk/X
+ mux_top_ipin_11.mux_l2_in_2_/S VGND VGND VPWR VPWR mux_top_ipin_11.mux_l3_in_1_/S
+ sky130_fd_sc_hd__dfxtp_1
XFILLER_20_29 VGND VGND VPWR VPWR sky130_fd_sc_hd__fill_2
X_24_ VGND VGND VPWR VPWR _24_/HI _24_/LO sky130_fd_sc_hd__conb_1
XFILLER_10_40 VGND VGND VPWR VPWR sky130_fd_sc_hd__fill_1
XFILLER_19_82 VGND VGND VPWR VPWR sky130_fd_sc_hd__decap_4
XFILLER_19_71 VGND VGND VPWR VPWR sky130_fd_sc_hd__fill_2
XFILLER_19_60 VGND VGND VPWR VPWR sky130_fd_sc_hd__fill_1
Xmem_top_ipin_7.sky130_fd_sc_hd__dfxtp_1_3_ clkbuf_3_3_0_mem_top_ipin_0.prog_clk/X
+ mux_top_ipin_7.mux_l3_in_0_/S VGND VGND VPWR VPWR mux_top_ipin_7.mux_l4_in_0_/S
+ sky130_fd_sc_hd__dfxtp_1
Xmux_top_ipin_0.sky130_fd_sc_hd__buf_4_0_ mux_top_ipin_0.mux_l4_in_0_/X VGND VGND
+ VPWR VPWR bottom_grid_pin_0_ sky130_fd_sc_hd__buf_4
Xmux_top_ipin_14.mux_l2_in_0_ chanx_left_in[2] mux_top_ipin_14.mux_l1_in_0_/X mux_top_ipin_14.mux_l2_in_0_/S
+ VGND VGND VPWR VPWR mux_top_ipin_14.mux_l2_in_0_/X sky130_fd_sc_hd__mux2_1
XPHY_112 VGND VPWR sky130_fd_sc_hd__tapvpwrvgnd_1
Xmux_top_ipin_7.mux_l1_in_0_ chanx_right_in[1] chanx_left_in[1] mux_top_ipin_7.mux_l1_in_0_/S
+ VGND VGND VPWR VPWR mux_top_ipin_7.mux_l1_in_0_/X sky130_fd_sc_hd__mux2_1
XPHY_101 VGND VPWR sky130_fd_sc_hd__tapvpwrvgnd_1
XPHY_3 VGND VGND VPWR VPWR sky130_fd_sc_hd__decap_3
XFILLER_7_30 VGND VGND VPWR VPWR sky130_fd_sc_hd__fill_2
XFILLER_7_74 VGND VGND VPWR VPWR sky130_fd_sc_hd__fill_2
XFILLER_21_175 VGND VGND VPWR VPWR sky130_fd_sc_hd__fill_2
Xmem_top_ipin_4.sky130_fd_sc_hd__dfxtp_1_2_ clkbuf_3_2_0_mem_top_ipin_0.prog_clk/X
+ mux_top_ipin_4.mux_l2_in_3_/S VGND VGND VPWR VPWR mux_top_ipin_4.mux_l3_in_1_/S
+ sky130_fd_sc_hd__dfxtp_1
XFILLER_12_186 VGND VGND VPWR VPWR sky130_fd_sc_hd__decap_4
XFILLER_12_175 VGND VGND VPWR VPWR sky130_fd_sc_hd__fill_2
XFILLER_12_19 VGND VGND VPWR VPWR sky130_fd_sc_hd__fill_2
XFILLER_5_149 VGND VGND VPWR VPWR sky130_fd_sc_hd__fill_2
XFILLER_4_42 VGND VGND VPWR VPWR sky130_fd_sc_hd__fill_2
Xmem_top_ipin_14.sky130_fd_sc_hd__dfxtp_1_2_ clkbuf_3_5_0_mem_top_ipin_0.prog_clk/X
+ mux_top_ipin_14.mux_l2_in_0_/S VGND VGND VPWR VPWR mux_top_ipin_14.mux_l3_in_1_/S
+ sky130_fd_sc_hd__dfxtp_1
Xmem_top_ipin_1.sky130_fd_sc_hd__dfxtp_1_1_ clkbuf_3_0_0_mem_top_ipin_0.prog_clk/X
+ mux_top_ipin_1.mux_l1_in_0_/S VGND VGND VPWR VPWR mux_top_ipin_1.mux_l2_in_0_/S
+ sky130_fd_sc_hd__dfxtp_1
X_40_ chanx_right_in[14] VGND VGND VPWR VPWR chanx_left_out[14] sky130_fd_sc_hd__buf_2
XFILLER_18_29 VGND VGND VPWR VPWR sky130_fd_sc_hd__fill_2
XFILLER_18_18 VGND VGND VPWR VPWR sky130_fd_sc_hd__fill_2
Xclkbuf_1_0_0_mem_top_ipin_0.prog_clk clkbuf_0_mem_top_ipin_0.prog_clk/X VGND VGND
+ VPWR VPWR clkbuf_2_1_0_mem_top_ipin_0.prog_clk/A sky130_fd_sc_hd__clkbuf_1
X_23_ VGND VGND VPWR VPWR _23_/HI _23_/LO sky130_fd_sc_hd__conb_1
Xmem_top_ipin_11.sky130_fd_sc_hd__dfxtp_1_1_ clkbuf_3_5_0_mem_top_ipin_0.prog_clk/X
+ mux_top_ipin_11.mux_l1_in_1_/S VGND VGND VPWR VPWR mux_top_ipin_11.mux_l2_in_2_/S
+ sky130_fd_sc_hd__dfxtp_1
Xmem_top_ipin_7.sky130_fd_sc_hd__dfxtp_1_2_ clkbuf_3_6_0_mem_top_ipin_0.prog_clk/X
+ mux_top_ipin_7.mux_l2_in_0_/S VGND VGND VPWR VPWR mux_top_ipin_7.mux_l3_in_0_/S
+ sky130_fd_sc_hd__dfxtp_1
XPHY_113 VGND VPWR sky130_fd_sc_hd__tapvpwrvgnd_1
XPHY_102 VGND VPWR sky130_fd_sc_hd__tapvpwrvgnd_1
XPHY_4 VGND VGND VPWR VPWR sky130_fd_sc_hd__decap_3
XFILLER_21_121 VGND VGND VPWR VPWR sky130_fd_sc_hd__fill_1
Xmem_top_ipin_4.sky130_fd_sc_hd__dfxtp_1_1_ clkbuf_3_2_0_mem_top_ipin_0.prog_clk/X
+ mux_top_ipin_4.mux_l1_in_0_/S VGND VGND VPWR VPWR mux_top_ipin_4.mux_l2_in_3_/S
+ sky130_fd_sc_hd__dfxtp_1
Xmux_top_ipin_14.mux_l1_in_0_ chanx_right_in[0] chanx_left_in[0] mux_top_ipin_14.mux_l1_in_0_/S
+ VGND VGND VPWR VPWR mux_top_ipin_14.mux_l1_in_0_/X sky130_fd_sc_hd__mux2_1
XFILLER_5_139 VGND VGND VPWR VPWR sky130_fd_sc_hd__decap_6
XFILLER_4_32 VGND VGND VPWR VPWR sky130_fd_sc_hd__fill_1
Xmem_top_ipin_14.sky130_fd_sc_hd__dfxtp_1_1_ clkbuf_3_5_0_mem_top_ipin_0.prog_clk/X
+ mux_top_ipin_14.mux_l1_in_0_/S VGND VGND VPWR VPWR mux_top_ipin_14.mux_l2_in_0_/S
+ sky130_fd_sc_hd__dfxtp_1
XFILLER_13_41 VGND VGND VPWR VPWR sky130_fd_sc_hd__fill_2
XFILLER_13_30 VGND VGND VPWR VPWR sky130_fd_sc_hd__fill_2
Xmem_top_ipin_1.sky130_fd_sc_hd__dfxtp_1_0_ clkbuf_3_0_0_mem_top_ipin_0.prog_clk/X
+ mux_top_ipin_0.mux_l4_in_0_/S VGND VGND VPWR VPWR mux_top_ipin_1.mux_l1_in_0_/S
+ sky130_fd_sc_hd__dfxtp_1
XFILLER_1_164 VGND VGND VPWR VPWR sky130_fd_sc_hd__fill_1
X_22_ VGND VGND VPWR VPWR _22_/HI _22_/LO sky130_fd_sc_hd__conb_1
Xmem_top_ipin_11.sky130_fd_sc_hd__dfxtp_1_0_ clkbuf_3_4_0_mem_top_ipin_0.prog_clk/X
+ mux_top_ipin_10.mux_l4_in_0_/S VGND VGND VPWR VPWR mux_top_ipin_11.mux_l1_in_1_/S
+ sky130_fd_sc_hd__dfxtp_1
Xmem_top_ipin_7.sky130_fd_sc_hd__dfxtp_1_1_ clkbuf_3_6_0_mem_top_ipin_0.prog_clk/X
+ mux_top_ipin_7.mux_l1_in_0_/S VGND VGND VPWR VPWR mux_top_ipin_7.mux_l2_in_0_/S
+ sky130_fd_sc_hd__dfxtp_1
XFILLER_18_3 VGND VGND VPWR VPWR sky130_fd_sc_hd__decap_6
XPHY_114 VGND VPWR sky130_fd_sc_hd__tapvpwrvgnd_1
XPHY_103 VGND VPWR sky130_fd_sc_hd__tapvpwrvgnd_1
XPHY_5 VGND VGND VPWR VPWR sky130_fd_sc_hd__decap_3
XFILLER_7_98 VGND VGND VPWR VPWR sky130_fd_sc_hd__decap_6
XFILLER_21_188 VGND VGND VPWR VPWR sky130_fd_sc_hd__fill_2
XFILLER_16_41 VGND VGND VPWR VPWR sky130_fd_sc_hd__fill_2
Xmem_top_ipin_4.sky130_fd_sc_hd__dfxtp_1_0_ clkbuf_3_2_0_mem_top_ipin_0.prog_clk/X
+ mux_top_ipin_3.mux_l4_in_0_/S VGND VGND VPWR VPWR mux_top_ipin_4.mux_l1_in_0_/S
+ sky130_fd_sc_hd__dfxtp_1
XFILLER_7_181 VGND VGND VPWR VPWR sky130_fd_sc_hd__fill_2
XFILLER_5_107 VGND VGND VPWR VPWR sky130_fd_sc_hd__decap_4
Xmem_top_ipin_14.sky130_fd_sc_hd__dfxtp_1_0_ clkbuf_3_7_0_mem_top_ipin_0.prog_clk/X
+ mux_top_ipin_13.mux_l4_in_0_/S VGND VGND VPWR VPWR mux_top_ipin_14.mux_l1_in_0_/S
+ sky130_fd_sc_hd__dfxtp_1
XFILLER_4_66 VGND VGND VPWR VPWR sky130_fd_sc_hd__fill_2
Xmux_top_ipin_3.mux_l2_in_3_ _28_/HI chanx_right_in[19] mux_top_ipin_3.mux_l2_in_3_/S
+ VGND VGND VPWR VPWR mux_top_ipin_3.mux_l2_in_3_/X sky130_fd_sc_hd__mux2_1
Xclkbuf_3_1_0_mem_top_ipin_0.prog_clk clkbuf_2_0_0_mem_top_ipin_0.prog_clk/X VGND
+ VGND VPWR VPWR clkbuf_3_1_0_mem_top_ipin_0.prog_clk/X sky130_fd_sc_hd__clkbuf_1
XFILLER_1_132 VGND VGND VPWR VPWR sky130_fd_sc_hd__fill_2
X_21_ VGND VGND VPWR VPWR _21_/HI _21_/LO sky130_fd_sc_hd__conb_1
XFILLER_19_96 VGND VGND VPWR VPWR sky130_fd_sc_hd__decap_6
Xmem_top_ipin_7.sky130_fd_sc_hd__dfxtp_1_0_ clkbuf_3_6_0_mem_top_ipin_0.prog_clk/X
+ mux_top_ipin_6.mux_l4_in_0_/S VGND VGND VPWR VPWR mux_top_ipin_7.mux_l1_in_0_/S
+ sky130_fd_sc_hd__dfxtp_1
XFILLER_10_21 VGND VGND VPWR VPWR sky130_fd_sc_hd__fill_2
Xmux_top_ipin_3.mux_l4_in_0_ mux_top_ipin_3.mux_l3_in_1_/X mux_top_ipin_3.mux_l3_in_0_/X
+ mux_top_ipin_3.mux_l4_in_0_/S VGND VGND VPWR VPWR mux_top_ipin_3.mux_l4_in_0_/X
+ sky130_fd_sc_hd__mux2_1
XPHY_115 VGND VPWR sky130_fd_sc_hd__tapvpwrvgnd_1
XPHY_104 VGND VPWR sky130_fd_sc_hd__tapvpwrvgnd_1
XFILLER_16_109 VGND VGND VPWR VPWR sky130_fd_sc_hd__fill_2
XFILLER_21_31 VGND VGND VPWR VPWR sky130_fd_sc_hd__decap_12
XFILLER_15_164 VGND VGND VPWR VPWR sky130_fd_sc_hd__fill_1
XFILLER_15_120 VGND VGND VPWR VPWR sky130_fd_sc_hd__fill_2
XPHY_6 VGND VGND VPWR VPWR sky130_fd_sc_hd__decap_3
XFILLER_7_55 VGND VGND VPWR VPWR sky130_fd_sc_hd__fill_2
XFILLER_21_123 VGND VGND VPWR VPWR sky130_fd_sc_hd__decap_12
Xmux_top_ipin_8.mux_l2_in_3_ _17_/HI chanx_right_in[18] mux_top_ipin_8.mux_l2_in_0_/S
+ VGND VGND VPWR VPWR mux_top_ipin_8.mux_l2_in_3_/X sky130_fd_sc_hd__mux2_1
Xmux_top_ipin_3.mux_l3_in_1_ mux_top_ipin_3.mux_l2_in_3_/X mux_top_ipin_3.mux_l2_in_2_/X
+ mux_top_ipin_3.mux_l3_in_1_/S VGND VGND VPWR VPWR mux_top_ipin_3.mux_l3_in_1_/X
+ sky130_fd_sc_hd__mux2_1
XFILLER_8_138 VGND VGND VPWR VPWR sky130_fd_sc_hd__decap_4
XFILLER_7_160 VGND VGND VPWR VPWR sky130_fd_sc_hd__fill_2
XFILLER_4_130 VGND VGND VPWR VPWR sky130_fd_sc_hd__decap_4
XFILLER_4_152 VGND VGND VPWR VPWR sky130_fd_sc_hd__fill_1
XFILLER_4_163 VGND VGND VPWR VPWR sky130_fd_sc_hd__decap_6
Xmux_top_ipin_3.mux_l2_in_2_ chanx_left_in[19] chanx_right_in[13] mux_top_ipin_3.mux_l2_in_3_/S
+ VGND VGND VPWR VPWR mux_top_ipin_3.mux_l2_in_2_/X sky130_fd_sc_hd__mux2_1