* NGSPICE file created from cbx_1__1_.ext - technology: EFS8A

* Black-box entry subcircuit for scs8hd_decap_3 abstract view
.subckt scs8hd_decap_3 vgnd vpwr
.ends

* Black-box entry subcircuit for scs8hd_fill_2 abstract view
.subckt scs8hd_fill_2 vpwr vgnd
.ends

* Black-box entry subcircuit for scs8hd_buf_2 abstract view
.subckt scs8hd_buf_2 A X vgnd vpwr
.ends

* Black-box entry subcircuit for scs8hd_lpflow_inputisolatch_1 abstract view
.subckt scs8hd_lpflow_inputisolatch_1 D Q SLEEPB vgnd vpwr
.ends

* Black-box entry subcircuit for scs8hd_decap_4 abstract view
.subckt scs8hd_decap_4 vgnd vpwr
.ends

* Black-box entry subcircuit for scs8hd_decap_6 abstract view
.subckt scs8hd_decap_6 vgnd vpwr
.ends

* Black-box entry subcircuit for scs8hd_conb_1 abstract view
.subckt scs8hd_conb_1 HI LO vgnd vpwr
.ends

* Black-box entry subcircuit for scs8hd_diode_2 abstract view
.subckt scs8hd_diode_2 DIODE vgnd vpwr
.ends

* Black-box entry subcircuit for scs8hd_decap_8 abstract view
.subckt scs8hd_decap_8 vgnd vpwr
.ends

* Black-box entry subcircuit for scs8hd_nor4_4 abstract view
.subckt scs8hd_nor4_4 A B C D Y vgnd vpwr
.ends

* Black-box entry subcircuit for scs8hd_ebufn_2 abstract view
.subckt scs8hd_ebufn_2 A TEB Z vgnd vpwr
.ends

* Black-box entry subcircuit for scs8hd_decap_12 abstract view
.subckt scs8hd_decap_12 vgnd vpwr
.ends

* Black-box entry subcircuit for scs8hd_inv_1 abstract view
.subckt scs8hd_inv_1 A Y vgnd vpwr
.ends

* Black-box entry subcircuit for scs8hd_tapvpwrvgnd_1 abstract view
.subckt scs8hd_tapvpwrvgnd_1 vgnd vpwr
.ends

* Black-box entry subcircuit for scs8hd_fill_1 abstract view
.subckt scs8hd_fill_1 vgnd vpwr
.ends

* Black-box entry subcircuit for scs8hd_inv_8 abstract view
.subckt scs8hd_inv_8 A Y vgnd vpwr
.ends

* Black-box entry subcircuit for scs8hd_or4_4 abstract view
.subckt scs8hd_or4_4 A B C D X vgnd vpwr
.ends

* Black-box entry subcircuit for scs8hd_or2_4 abstract view
.subckt scs8hd_or2_4 A B X vgnd vpwr
.ends

.subckt cbx_1__1_ address[0] address[1] address[2] address[3] address[4] address[5]
+ bottom_grid_pin_0_ bottom_grid_pin_4_ bottom_grid_pin_8_ chanx_left_in[0] chanx_left_in[1]
+ chanx_left_in[2] chanx_left_in[3] chanx_left_in[4] chanx_left_in[5] chanx_left_in[6]
+ chanx_left_in[7] chanx_left_in[8] chanx_left_out[0] chanx_left_out[1] chanx_left_out[2]
+ chanx_left_out[3] chanx_left_out[4] chanx_left_out[5] chanx_left_out[6] chanx_left_out[7]
+ chanx_left_out[8] chanx_right_in[0] chanx_right_in[1] chanx_right_in[2] chanx_right_in[3]
+ chanx_right_in[4] chanx_right_in[5] chanx_right_in[6] chanx_right_in[7] chanx_right_in[8]
+ chanx_right_out[0] chanx_right_out[1] chanx_right_out[2] chanx_right_out[3] chanx_right_out[4]
+ chanx_right_out[5] chanx_right_out[6] chanx_right_out[7] chanx_right_out[8] data_in
+ enable top_grid_pin_14_ top_grid_pin_2_ top_grid_pin_6_ vpwr vgnd
XFILLER_22_100 vgnd vpwr scs8hd_decap_3
XFILLER_13_100 vgnd vpwr scs8hd_decap_3
XFILLER_26_74 vpwr vgnd scs8hd_fill_2
XFILLER_9_104 vpwr vgnd scs8hd_fill_2
XFILLER_9_148 vgnd vpwr scs8hd_decap_3
X_83_ chanx_left_in[6] chanx_right_out[6] vgnd vpwr scs8hd_buf_2
Xmem_bottom_ipin_2.LATCH_1_.latch data_in mem_bottom_ipin_2.LATCH_1_.latch/Q _50_/Y
+ vgnd vpwr scs8hd_lpflow_inputisolatch_1
XFILLER_6_129 vgnd vpwr scs8hd_decap_4
XFILLER_12_32 vgnd vpwr scs8hd_decap_6
XFILLER_12_98 vpwr vgnd scs8hd_fill_2
XFILLER_5_173 vpwr vgnd scs8hd_fill_2
XFILLER_5_184 vgnd vpwr scs8hd_decap_3
X_66_ _66_/HI _66_/LO vgnd vpwr scs8hd_conb_1
XANTENNA_mux_bottom_ipin_1.mux_l1_in_0_.TGATE_1_.scs8hd_ebufn_2_TEB _32_/Y vgnd vpwr
+ scs8hd_diode_2
XFILLER_2_165 vgnd vpwr scs8hd_decap_8
XANTENNA_mem_top_ipin_0.LATCH_3_.latch_D data_in vgnd vpwr scs8hd_diode_2
XANTENNA_mem_top_ipin_1.LATCH_1_.latch_D data_in vgnd vpwr scs8hd_diode_2
X_49_ _48_/A address[2] address[0] _46_/D _49_/Y vgnd vpwr scs8hd_nor4_4
XFILLER_11_231 vpwr vgnd scs8hd_fill_2
XANTENNA_mux_top_ipin_2.INVTX1_1_.scs8hd_inv_1_A chanx_right_in[5] vgnd vpwr scs8hd_diode_2
XFILLER_4_227 vgnd vpwr scs8hd_decap_6
Xmux_top_ipin_0.mux_l1_in_1_.TGATE_0_.scs8hd_ebufn_2 mux_top_ipin_0.INVTX1_3_.scs8hd_inv_1/Y
+ mem_top_ipin_0.LATCH_0_.latch/Q mux_top_ipin_0.mux_l1_in_1_.TGATE_2_.scs8hd_ebufn_2/Z
+ vgnd vpwr scs8hd_ebufn_2
XFILLER_20_32 vgnd vpwr scs8hd_decap_8
XFILLER_20_65 vpwr vgnd scs8hd_fill_2
XFILLER_20_98 vgnd vpwr scs8hd_decap_4
XFILLER_29_74 vgnd vpwr scs8hd_decap_12
XFILLER_6_56 vgnd vpwr scs8hd_decap_12
XANTENNA_mux_top_ipin_0.mux_l1_in_0_.TGATE_2_.scs8hd_ebufn_2_A mux_top_ipin_0.INVTX1_2_.scs8hd_inv_1/Y
+ vgnd vpwr scs8hd_diode_2
XFILLER_13_3 vgnd vpwr scs8hd_decap_12
XFILLER_19_150 vgnd vpwr scs8hd_decap_4
XFILLER_19_172 vpwr vgnd scs8hd_fill_2
Xmux_bottom_ipin_0.mux_l2_in_0_.TGATE_2_.scs8hd_ebufn_2 _66_/HI mem_bottom_ipin_0.LATCH_5_.latch/Q
+ mux_bottom_ipin_0.tap_buf4_0_.scs8hd_inv_1/A vgnd vpwr scs8hd_ebufn_2
XFILLER_1_208 vgnd vpwr scs8hd_decap_12
Xmux_bottom_ipin_0.INVTX1_3_.scs8hd_inv_1 chanx_right_in[4] mux_bottom_ipin_0.INVTX1_3_.scs8hd_inv_1/Y
+ vgnd vpwr scs8hd_inv_1
XFILLER_31_86 vgnd vpwr scs8hd_decap_12
XFILLER_16_186 vgnd vpwr scs8hd_decap_4
XPHY_170 vgnd vpwr scs8hd_tapvpwrvgnd_1
XFILLER_31_123 vgnd vpwr scs8hd_decap_12
XPHY_181 vgnd vpwr scs8hd_tapvpwrvgnd_1
XPHY_192 vgnd vpwr scs8hd_tapvpwrvgnd_1
XFILLER_13_123 vpwr vgnd scs8hd_fill_2
XFILLER_9_127 vpwr vgnd scs8hd_fill_2
XANTENNA_mux_top_ipin_0.mux_l2_in_0_.TGATE_0_.scs8hd_ebufn_2_A mux_top_ipin_0.mux_l1_in_0_.TGATE_2_.scs8hd_ebufn_2/Z
+ vgnd vpwr scs8hd_diode_2
X_82_ chanx_left_in[7] chanx_right_out[7] vgnd vpwr scs8hd_buf_2
XANTENNA_mux_bottom_ipin_1.mux_l1_in_0_.TGATE_1_.scs8hd_ebufn_2_A mux_bottom_ipin_1.INVTX1_1_.scs8hd_inv_1/Y
+ vgnd vpwr scs8hd_diode_2
XFILLER_10_104 vpwr vgnd scs8hd_fill_2
XFILLER_10_137 vgnd vpwr scs8hd_decap_12
XFILLER_18_215 vgnd vpwr scs8hd_decap_12
X_65_ _63_/A address[4] _60_/C address[0] _65_/Y vgnd vpwr scs8hd_nor4_4
Xmux_top_ipin_0.tap_buf4_0_.scs8hd_inv_1 mux_top_ipin_0.tap_buf4_0_.scs8hd_inv_1/A
+ bottom_grid_pin_0_ vgnd vpwr scs8hd_inv_1
XFILLER_23_43 vgnd vpwr scs8hd_fill_1
XFILLER_2_111 vgnd vpwr scs8hd_fill_1
XFILLER_2_177 vgnd vpwr scs8hd_decap_12
X_48_ _48_/A address[2] _46_/C _46_/D _48_/Y vgnd vpwr scs8hd_nor4_4
XFILLER_18_32 vgnd vpwr scs8hd_decap_12
XFILLER_18_98 vpwr vgnd scs8hd_fill_2
XFILLER_15_7 vpwr vgnd scs8hd_fill_2
XFILLER_20_44 vgnd vpwr scs8hd_decap_4
XFILLER_20_77 vgnd vpwr scs8hd_fill_1
XFILLER_29_86 vgnd vpwr scs8hd_decap_12
XFILLER_6_68 vgnd vpwr scs8hd_decap_12
XFILLER_34_154 vgnd vpwr scs8hd_decap_12
XFILLER_15_11 vgnd vpwr scs8hd_decap_12
XFILLER_15_66 vgnd vpwr scs8hd_fill_1
XANTENNA_mem_bottom_ipin_0.LATCH_5_.latch_D data_in vgnd vpwr scs8hd_diode_2
XFILLER_25_110 vpwr vgnd scs8hd_fill_2
XFILLER_31_98 vgnd vpwr scs8hd_decap_12
XPHY_193 vgnd vpwr scs8hd_tapvpwrvgnd_1
XPHY_160 vgnd vpwr scs8hd_tapvpwrvgnd_1
XPHY_171 vgnd vpwr scs8hd_tapvpwrvgnd_1
XPHY_182 vgnd vpwr scs8hd_tapvpwrvgnd_1
XFILLER_31_135 vgnd vpwr scs8hd_decap_12
XANTENNA_mem_bottom_ipin_2.LATCH_1_.latch_D data_in vgnd vpwr scs8hd_diode_2
XFILLER_30_190 vgnd vpwr scs8hd_decap_12
Xmem_top_ipin_0.LATCH_4_.latch data_in mem_top_ipin_0.LATCH_4_.latch/Q _55_/Y vgnd
+ vpwr scs8hd_lpflow_inputisolatch_1
XFILLER_26_32 vgnd vpwr scs8hd_decap_12
XFILLER_13_168 vpwr vgnd scs8hd_fill_2
XFILLER_13_179 vpwr vgnd scs8hd_fill_2
X_81_ chanx_left_in[8] chanx_right_out[8] vgnd vpwr scs8hd_buf_2
XFILLER_8_161 vpwr vgnd scs8hd_fill_2
XFILLER_10_149 vgnd vpwr scs8hd_decap_4
Xmux_bottom_ipin_2.mux_l1_in_0_.TGATE_2_.scs8hd_ebufn_2 mux_bottom_ipin_2.INVTX1_2_.scs8hd_inv_1/Y
+ mem_bottom_ipin_2.LATCH_2_.latch/Q mux_bottom_ipin_2.mux_l1_in_0_.TGATE_2_.scs8hd_ebufn_2/Z
+ vgnd vpwr scs8hd_ebufn_2
XFILLER_33_219 vpwr vgnd scs8hd_fill_2
XFILLER_18_227 vgnd vpwr scs8hd_decap_6
XANTENNA_mux_top_ipin_1.mux_l2_in_0_.TGATE_1_.scs8hd_ebufn_2_TEB _33_/Y vgnd vpwr
+ scs8hd_diode_2
X_64_ _63_/A address[4] _60_/C _46_/C _64_/Y vgnd vpwr scs8hd_nor4_4
XFILLER_15_219 vpwr vgnd scs8hd_fill_2
XFILLER_23_77 vgnd vpwr scs8hd_decap_4
XFILLER_3_3 vgnd vpwr scs8hd_decap_12
XFILLER_2_145 vgnd vpwr scs8hd_decap_8
XFILLER_2_123 vpwr vgnd scs8hd_fill_2
XFILLER_2_189 vgnd vpwr scs8hd_decap_12
XFILLER_0_15 vgnd vpwr scs8hd_decap_12
XFILLER_9_57 vpwr vgnd scs8hd_fill_2
XFILLER_9_79 vpwr vgnd scs8hd_fill_2
X_47_ address[1] _46_/B address[0] _46_/D _47_/Y vgnd vpwr scs8hd_nor4_4
Xmem_bottom_ipin_0.LATCH_4_.latch data_in mem_bottom_ipin_0.LATCH_4_.latch/Q _40_/Y
+ vgnd vpwr scs8hd_lpflow_inputisolatch_1
XANTENNA_mux_top_ipin_0.mux_l1_in_1_.TGATE_0_.scs8hd_ebufn_2_A mux_top_ipin_0.INVTX1_3_.scs8hd_inv_1/Y
+ vgnd vpwr scs8hd_diode_2
XFILLER_18_44 vgnd vpwr scs8hd_decap_4
XFILLER_18_77 vpwr vgnd scs8hd_fill_2
XFILLER_34_32 vgnd vpwr scs8hd_decap_12
XFILLER_28_141 vgnd vpwr scs8hd_decap_12
XFILLER_29_98 vgnd vpwr scs8hd_decap_12
Xmem_top_ipin_1.LATCH_0_.latch data_in _34_/A _63_/Y vgnd vpwr scs8hd_lpflow_inputisolatch_1
XFILLER_34_166 vgnd vpwr scs8hd_decap_12
XFILLER_15_23 vgnd vpwr scs8hd_decap_12
XFILLER_15_45 vpwr vgnd scs8hd_fill_2
XFILLER_0_232 vgnd vpwr scs8hd_fill_1
XFILLER_16_111 vgnd vpwr scs8hd_decap_8
XFILLER_16_122 vpwr vgnd scs8hd_fill_2
XFILLER_16_166 vgnd vpwr scs8hd_decap_6
XFILLER_16_199 vgnd vpwr scs8hd_decap_12
XPHY_150 vgnd vpwr scs8hd_tapvpwrvgnd_1
XPHY_161 vgnd vpwr scs8hd_tapvpwrvgnd_1
XPHY_172 vgnd vpwr scs8hd_tapvpwrvgnd_1
XPHY_183 vgnd vpwr scs8hd_tapvpwrvgnd_1
XFILLER_31_147 vgnd vpwr scs8hd_decap_12
XPHY_194 vgnd vpwr scs8hd_tapvpwrvgnd_1
XFILLER_22_125 vgnd vpwr scs8hd_decap_12
XFILLER_26_44 vgnd vpwr scs8hd_decap_12
XFILLER_9_118 vgnd vpwr scs8hd_decap_4
XFILLER_13_114 vgnd vpwr scs8hd_decap_8
XFILLER_21_191 vgnd vpwr scs8hd_decap_12
XANTENNA_mux_top_ipin_1.mux_l2_in_0_.TGATE_0_.scs8hd_ebufn_2_A mux_top_ipin_1.mux_l1_in_0_.TGATE_0_.scs8hd_ebufn_2/Z
+ vgnd vpwr scs8hd_diode_2
XFILLER_3_59 vpwr vgnd scs8hd_fill_2
XFILLER_3_15 vgnd vpwr scs8hd_decap_12
X_80_ chanx_right_in[0] chanx_left_out[0] vgnd vpwr scs8hd_buf_2
XFILLER_8_173 vgnd vpwr scs8hd_decap_8
XANTENNA_mux_bottom_ipin_2.mux_l1_in_0_.TGATE_1_.scs8hd_ebufn_2_A mux_bottom_ipin_2.INVTX1_1_.scs8hd_inv_1/Y
+ vgnd vpwr scs8hd_diode_2
XFILLER_12_57 vgnd vpwr scs8hd_decap_4
XFILLER_5_154 vpwr vgnd scs8hd_fill_2
Xmem_bottom_ipin_1.LATCH_0_.latch data_in _32_/A _61_/Y vgnd vpwr scs8hd_lpflow_inputisolatch_1
X_63_ _63_/A address[4] _63_/C address[0] _63_/Y vgnd vpwr scs8hd_nor4_4
XFILLER_4_80 vgnd vpwr scs8hd_decap_12
XFILLER_23_231 vpwr vgnd scs8hd_fill_2
XFILLER_0_27 vgnd vpwr scs8hd_decap_4
XFILLER_29_3 vgnd vpwr scs8hd_decap_12
X_46_ address[1] _46_/B _46_/C _46_/D _46_/Y vgnd vpwr scs8hd_nor4_4
Xmux_top_ipin_2.mux_l2_in_0_.TGATE_0_.scs8hd_ebufn_2 mux_top_ipin_2.mux_l1_in_0_.TGATE_1_.scs8hd_ebufn_2/Z
+ _35_/A mux_top_ipin_2.tap_buf4_0_.scs8hd_inv_1/A vgnd vpwr scs8hd_ebufn_2
Xmux_bottom_ipin_2.INVTX1_0_.scs8hd_inv_1 chanx_left_in[1] mux_bottom_ipin_2.INVTX1_0_.scs8hd_inv_1/Y
+ vgnd vpwr scs8hd_inv_1
XFILLER_11_223 vgnd vpwr scs8hd_decap_8
XFILLER_18_89 vgnd vpwr scs8hd_fill_1
XFILLER_34_44 vgnd vpwr scs8hd_decap_12
XFILLER_7_205 vgnd vpwr scs8hd_decap_12
Xmux_top_ipin_1.INVTX1_0_.scs8hd_inv_1 chanx_left_in[4] mux_top_ipin_1.INVTX1_0_.scs8hd_inv_1/Y
+ vgnd vpwr scs8hd_inv_1
X_29_ address[3] _53_/C vgnd vpwr scs8hd_inv_8
XFILLER_6_15 vgnd vpwr scs8hd_decap_12
XFILLER_34_178 vgnd vpwr scs8hd_decap_12
XFILLER_25_123 vgnd vpwr scs8hd_decap_12
XFILLER_15_57 vgnd vpwr scs8hd_decap_4
XFILLER_0_222 vpwr vgnd scs8hd_fill_2
XFILLER_16_134 vpwr vgnd scs8hd_fill_2
XPHY_140 vgnd vpwr scs8hd_tapvpwrvgnd_1
XPHY_151 vgnd vpwr scs8hd_tapvpwrvgnd_1
XPHY_162 vgnd vpwr scs8hd_tapvpwrvgnd_1
XPHY_173 vgnd vpwr scs8hd_tapvpwrvgnd_1
XPHY_184 vgnd vpwr scs8hd_tapvpwrvgnd_1
XFILLER_31_159 vgnd vpwr scs8hd_decap_12
XPHY_195 vgnd vpwr scs8hd_tapvpwrvgnd_1
XANTENNA_mux_bottom_ipin_1.mux_l2_in_0_.TGATE_1_.scs8hd_ebufn_2_TEB _31_/Y vgnd vpwr
+ scs8hd_diode_2
XFILLER_22_137 vgnd vpwr scs8hd_decap_12
XFILLER_26_56 vgnd vpwr scs8hd_decap_12
XFILLER_26_78 vgnd vpwr scs8hd_decap_12
XFILLER_9_108 vgnd vpwr scs8hd_decap_4
XFILLER_3_27 vgnd vpwr scs8hd_decap_12
XFILLER_8_196 vpwr vgnd scs8hd_fill_2
XFILLER_10_129 vpwr vgnd scs8hd_fill_2
XFILLER_18_207 vgnd vpwr scs8hd_decap_6
XANTENNA_mem_bottom_ipin_2.LATCH_4_.latch_SLEEPB _47_/Y vgnd vpwr scs8hd_diode_2
XFILLER_5_177 vgnd vpwr scs8hd_decap_6
X_62_ _63_/A address[4] _63_/C _46_/C _62_/Y vgnd vpwr scs8hd_nor4_4
XFILLER_23_46 vpwr vgnd scs8hd_fill_2
XFILLER_9_15 vgnd vpwr scs8hd_decap_12
XFILLER_13_90 vgnd vpwr scs8hd_decap_4
X_45_ address[3] _53_/D address[5] _45_/D _46_/D vgnd vpwr scs8hd_or4_4
XANTENNA_mux_top_ipin_1.INVTX1_0_.scs8hd_inv_1_A chanx_left_in[4] vgnd vpwr scs8hd_diode_2
XFILLER_18_68 vpwr vgnd scs8hd_fill_2
XFILLER_34_56 vgnd vpwr scs8hd_decap_12
XFILLER_7_217 vgnd vpwr scs8hd_decap_12
XANTENNA_mux_bottom_ipin_0.mux_l2_in_0_.TGATE_2_.scs8hd_ebufn_2_A _66_/HI vgnd vpwr
+ scs8hd_diode_2
X_28_ address[4] _45_/D vgnd vpwr scs8hd_inv_8
XFILLER_4_209 vgnd vpwr scs8hd_decap_4
XANTENNA_mem_top_ipin_1.LATCH_1_.latch_SLEEPB _62_/Y vgnd vpwr scs8hd_diode_2
XFILLER_20_69 vgnd vpwr scs8hd_decap_8
XFILLER_28_154 vgnd vpwr scs8hd_decap_12
Xmux_bottom_ipin_0.INVTX1_0_.scs8hd_inv_1 chanx_left_in[0] mux_bottom_ipin_0.INVTX1_0_.scs8hd_inv_1/Y
+ vgnd vpwr scs8hd_inv_1
XFILLER_6_27 vgnd vpwr scs8hd_decap_4
XFILLER_3_231 vpwr vgnd scs8hd_fill_2
XFILLER_10_80 vgnd vpwr scs8hd_fill_1
XFILLER_19_121 vgnd vpwr scs8hd_fill_1
XANTENNA_mem_bottom_ipin_0.LATCH_5_.latch_SLEEPB _39_/Y vgnd vpwr scs8hd_diode_2
XFILLER_19_176 vpwr vgnd scs8hd_fill_2
XFILLER_19_187 vgnd vpwr scs8hd_decap_12
XFILLER_25_135 vgnd vpwr scs8hd_decap_12
XFILLER_15_69 vpwr vgnd scs8hd_fill_2
XPHY_130 vgnd vpwr scs8hd_tapvpwrvgnd_1
XPHY_141 vgnd vpwr scs8hd_tapvpwrvgnd_1
XPHY_152 vgnd vpwr scs8hd_tapvpwrvgnd_1
XPHY_163 vgnd vpwr scs8hd_tapvpwrvgnd_1
XPHY_174 vgnd vpwr scs8hd_tapvpwrvgnd_1
XPHY_185 vgnd vpwr scs8hd_tapvpwrvgnd_1
XPHY_196 vgnd vpwr scs8hd_tapvpwrvgnd_1
XANTENNA_mux_top_ipin_0.tap_buf4_0_.scs8hd_inv_1_A mux_top_ipin_0.tap_buf4_0_.scs8hd_inv_1/A
+ vgnd vpwr scs8hd_diode_2
Xmux_top_ipin_0.INVTX1_4_.scs8hd_inv_1 chanx_left_in[7] mux_top_ipin_0.INVTX1_4_.scs8hd_inv_1/Y
+ vgnd vpwr scs8hd_inv_1
XFILLER_22_105 vgnd vpwr scs8hd_decap_3
XFILLER_22_149 vgnd vpwr scs8hd_decap_4
XFILLER_13_127 vgnd vpwr scs8hd_decap_3
XFILLER_13_149 vgnd vpwr scs8hd_decap_6
XFILLER_26_68 vgnd vpwr scs8hd_decap_3
XANTENNA__31__A _31_/A vgnd vpwr scs8hd_diode_2
XFILLER_21_171 vgnd vpwr scs8hd_decap_12
XFILLER_3_39 vgnd vpwr scs8hd_decap_12
Xmux_top_ipin_1.mux_l2_in_0_.TGATE_0_.scs8hd_ebufn_2 mux_top_ipin_1.mux_l1_in_0_.TGATE_0_.scs8hd_ebufn_2/Z
+ _33_/A mux_top_ipin_1.tap_buf4_0_.scs8hd_inv_1/A vgnd vpwr scs8hd_ebufn_2
XANTENNA_mux_top_ipin_2.mux_l2_in_0_.TGATE_0_.scs8hd_ebufn_2_A mux_top_ipin_2.mux_l1_in_0_.TGATE_1_.scs8hd_ebufn_2/Z
+ vgnd vpwr scs8hd_diode_2
XFILLER_12_182 vpwr vgnd scs8hd_fill_2
XFILLER_12_193 vgnd vpwr scs8hd_decap_8
XFILLER_27_208 vgnd vpwr scs8hd_decap_12
XFILLER_35_230 vgnd vpwr scs8hd_decap_3
XFILLER_10_108 vgnd vpwr scs8hd_decap_4
XANTENNA__26__A address[0] vgnd vpwr scs8hd_diode_2
XFILLER_5_189 vgnd vpwr scs8hd_decap_12
XFILLER_5_123 vpwr vgnd scs8hd_fill_2
X_61_ address[5] address[4] _60_/C address[0] _61_/Y vgnd vpwr scs8hd_nor4_4
XFILLER_17_230 vgnd vpwr scs8hd_decap_3
XFILLER_14_211 vgnd vpwr scs8hd_decap_3
XFILLER_9_27 vgnd vpwr scs8hd_decap_12
X_44_ address[1] address[2] address[0] _44_/D _44_/Y vgnd vpwr scs8hd_nor4_4
Xmux_bottom_ipin_0.mux_l1_in_0_.TGATE_2_.scs8hd_ebufn_2 mux_bottom_ipin_0.INVTX1_2_.scs8hd_inv_1/Y
+ mem_bottom_ipin_0.LATCH_2_.latch/Q mux_bottom_ipin_0.mux_l1_in_0_.TGATE_2_.scs8hd_ebufn_2/Z
+ vgnd vpwr scs8hd_ebufn_2
XFILLER_7_229 vgnd vpwr scs8hd_decap_4
XFILLER_11_203 vpwr vgnd scs8hd_fill_2
XFILLER_34_68 vgnd vpwr scs8hd_decap_12
XFILLER_1_3 vgnd vpwr scs8hd_decap_12
XANTENNA_mem_bottom_ipin_2.LATCH_4_.latch_D data_in vgnd vpwr scs8hd_diode_2
XFILLER_34_3 vgnd vpwr scs8hd_decap_12
X_27_ address[5] _63_/A vgnd vpwr scs8hd_inv_8
XFILLER_20_15 vgnd vpwr scs8hd_decap_12
XFILLER_28_166 vgnd vpwr scs8hd_decap_12
XANTENNA__34__A _34_/A vgnd vpwr scs8hd_diode_2
XFILLER_19_199 vgnd vpwr scs8hd_decap_12
XANTENNA_mux_bottom_ipin_2.INVTX1_5_.scs8hd_inv_1_A chanx_right_in[6] vgnd vpwr scs8hd_diode_2
XFILLER_25_103 vgnd vpwr scs8hd_fill_1
XFILLER_25_114 vgnd vpwr scs8hd_decap_8
XFILLER_25_147 vgnd vpwr scs8hd_decap_12
XANTENNA__29__A address[3] vgnd vpwr scs8hd_diode_2
XPHY_120 vgnd vpwr scs8hd_tapvpwrvgnd_1
XPHY_131 vgnd vpwr scs8hd_tapvpwrvgnd_1
XFILLER_16_158 vpwr vgnd scs8hd_fill_2
XPHY_142 vgnd vpwr scs8hd_tapvpwrvgnd_1
XPHY_153 vgnd vpwr scs8hd_tapvpwrvgnd_1
XFILLER_24_180 vgnd vpwr scs8hd_decap_12
XPHY_164 vgnd vpwr scs8hd_tapvpwrvgnd_1
XPHY_175 vgnd vpwr scs8hd_tapvpwrvgnd_1
XPHY_197 vgnd vpwr scs8hd_tapvpwrvgnd_1
XPHY_186 vgnd vpwr scs8hd_tapvpwrvgnd_1
XPHY_0 vgnd vpwr scs8hd_decap_3
XFILLER_22_117 vpwr vgnd scs8hd_fill_2
XFILLER_7_82 vgnd vpwr scs8hd_decap_4
XANTENNA_mux_bottom_ipin_0.mux_l1_in_1_.TGATE_2_.scs8hd_ebufn_2_A mux_bottom_ipin_0.INVTX1_5_.scs8hd_inv_1/Y
+ vgnd vpwr scs8hd_diode_2
XFILLER_8_110 vgnd vpwr scs8hd_decap_12
XFILLER_8_165 vgnd vpwr scs8hd_decap_4
XFILLER_12_38 vgnd vpwr scs8hd_fill_1
XFILLER_12_49 vpwr vgnd scs8hd_fill_2
XANTENNA__42__A _48_/A vgnd vpwr scs8hd_diode_2
XFILLER_5_113 vgnd vpwr scs8hd_decap_3
X_60_ address[5] address[4] _60_/C _46_/C _60_/Y vgnd vpwr scs8hd_nor4_4
XFILLER_23_15 vgnd vpwr scs8hd_decap_12
XFILLER_23_223 vgnd vpwr scs8hd_decap_8
XFILLER_2_127 vgnd vpwr scs8hd_decap_4
XFILLER_2_105 vgnd vpwr scs8hd_decap_6
XANTENNA__37__A address[3] vgnd vpwr scs8hd_diode_2
XFILLER_9_39 vgnd vpwr scs8hd_decap_12
XFILLER_1_182 vgnd vpwr scs8hd_fill_1
X_43_ address[1] address[2] _46_/C _44_/D _43_/Y vgnd vpwr scs8hd_nor4_4
XFILLER_20_215 vgnd vpwr scs8hd_decap_12
XFILLER_18_15 vgnd vpwr scs8hd_decap_12
XFILLER_11_215 vpwr vgnd scs8hd_fill_2
Xmem_bottom_ipin_2.LATCH_2_.latch data_in mem_bottom_ipin_2.LATCH_2_.latch/Q _49_/Y
+ vgnd vpwr scs8hd_lpflow_inputisolatch_1
XANTENNA_mux_top_ipin_0.mux_l1_in_0_.TGATE_0_.scs8hd_ebufn_2_TEB mem_top_ipin_0.LATCH_0_.latch/Q
+ vgnd vpwr scs8hd_diode_2
XANTENNA_mux_top_ipin_0.INVTX1_4_.scs8hd_inv_1_A chanx_left_in[7] vgnd vpwr scs8hd_diode_2
XFILLER_27_3 vgnd vpwr scs8hd_decap_12
X_26_ address[0] _46_/C vgnd vpwr scs8hd_inv_8
XFILLER_1_51 vgnd vpwr scs8hd_decap_8
XFILLER_1_62 vgnd vpwr scs8hd_decap_12
XFILLER_20_27 vgnd vpwr scs8hd_decap_4
XANTENNA_mux_bottom_ipin_0.INVTX1_2_.scs8hd_inv_1_A chanx_left_in[4] vgnd vpwr scs8hd_diode_2
XFILLER_28_178 vgnd vpwr scs8hd_decap_12
Xmux_top_ipin_0.mux_l2_in_0_.TGATE_0_.scs8hd_ebufn_2 mux_top_ipin_0.mux_l1_in_0_.TGATE_2_.scs8hd_ebufn_2/Z
+ mem_top_ipin_0.LATCH_3_.latch/Q mux_top_ipin_0.tap_buf4_0_.scs8hd_inv_1/A vgnd vpwr
+ scs8hd_ebufn_2
XANTENNA__50__A address[1] vgnd vpwr scs8hd_diode_2
XFILLER_10_60 vgnd vpwr scs8hd_fill_1
XFILLER_19_123 vgnd vpwr scs8hd_decap_4
XFILLER_19_156 vpwr vgnd scs8hd_fill_2
XFILLER_15_38 vgnd vpwr scs8hd_decap_4
XFILLER_15_49 vpwr vgnd scs8hd_fill_2
XFILLER_25_159 vgnd vpwr scs8hd_decap_12
XFILLER_31_15 vgnd vpwr scs8hd_decap_12
XFILLER_31_59 vpwr vgnd scs8hd_fill_2
XFILLER_16_126 vpwr vgnd scs8hd_fill_2
XPHY_198 vgnd vpwr scs8hd_tapvpwrvgnd_1
XANTENNA__45__A address[3] vgnd vpwr scs8hd_diode_2
XPHY_110 vgnd vpwr scs8hd_tapvpwrvgnd_1
XPHY_121 vgnd vpwr scs8hd_tapvpwrvgnd_1
XPHY_132 vgnd vpwr scs8hd_tapvpwrvgnd_1
XPHY_143 vgnd vpwr scs8hd_tapvpwrvgnd_1
XPHY_154 vgnd vpwr scs8hd_tapvpwrvgnd_1
XFILLER_24_192 vgnd vpwr scs8hd_decap_12
XPHY_165 vgnd vpwr scs8hd_tapvpwrvgnd_1
XPHY_176 vgnd vpwr scs8hd_tapvpwrvgnd_1
XPHY_187 vgnd vpwr scs8hd_tapvpwrvgnd_1
XPHY_1 vgnd vpwr scs8hd_decap_3
XFILLER_26_15 vgnd vpwr scs8hd_decap_12
XFILLER_21_151 vgnd vpwr scs8hd_fill_1
XFILLER_16_70 vgnd vpwr scs8hd_fill_1
XFILLER_32_80 vgnd vpwr scs8hd_decap_12
XANTENNA__42__B address[2] vgnd vpwr scs8hd_diode_2
XFILLER_5_169 vpwr vgnd scs8hd_fill_2
XFILLER_32_202 vgnd vpwr scs8hd_decap_12
XFILLER_4_180 vgnd vpwr scs8hd_decap_8
XFILLER_23_27 vgnd vpwr scs8hd_decap_12
XANTENNA__37__B _53_/D vgnd vpwr scs8hd_diode_2
XANTENNA__53__A address[5] vgnd vpwr scs8hd_diode_2
XFILLER_1_150 vgnd vpwr scs8hd_decap_3
XFILLER_1_172 vpwr vgnd scs8hd_fill_2
X_42_ _48_/A address[2] address[0] _44_/D _42_/Y vgnd vpwr scs8hd_nor4_4
XFILLER_20_227 vgnd vpwr scs8hd_decap_6
XFILLER_18_27 vgnd vpwr scs8hd_decap_4
XFILLER_34_15 vgnd vpwr scs8hd_decap_12
Xmux_top_ipin_0.mux_l1_in_1_.TGATE_1_.scs8hd_ebufn_2 mux_top_ipin_0.INVTX1_4_.scs8hd_inv_1/Y
+ mem_top_ipin_0.LATCH_1_.latch/Q mux_top_ipin_0.mux_l1_in_1_.TGATE_2_.scs8hd_ebufn_2/Z
+ vgnd vpwr scs8hd_ebufn_2
XANTENNA_mux_bottom_ipin_2.INVTX1_0_.scs8hd_inv_1_A chanx_left_in[1] vgnd vpwr scs8hd_diode_2
XANTENNA__48__A _48_/A vgnd vpwr scs8hd_diode_2
Xmux_top_ipin_2.INVTX1_1_.scs8hd_inv_1 chanx_right_in[5] mux_top_ipin_2.INVTX1_1_.scs8hd_inv_1/Y
+ vgnd vpwr scs8hd_inv_1
XFILLER_1_74 vgnd vpwr scs8hd_decap_12
X_25_ address[2] _46_/B vgnd vpwr scs8hd_inv_8
XFILLER_29_15 vgnd vpwr scs8hd_decap_12
XANTENNA_mem_top_ipin_0.LATCH_4_.latch_SLEEPB _55_/Y vgnd vpwr scs8hd_diode_2
Xmux_bottom_ipin_1.tap_buf4_0_.scs8hd_inv_1 mux_bottom_ipin_1.tap_buf4_0_.scs8hd_inv_1/A
+ top_grid_pin_6_ vgnd vpwr scs8hd_inv_1
XFILLER_29_59 vpwr vgnd scs8hd_fill_2
XANTENNA__50__B address[2] vgnd vpwr scs8hd_diode_2
XFILLER_10_72 vpwr vgnd scs8hd_fill_2
XFILLER_19_113 vpwr vgnd scs8hd_fill_2
XFILLER_19_92 vpwr vgnd scs8hd_fill_2
XFILLER_19_168 vpwr vgnd scs8hd_fill_2
XFILLER_34_105 vgnd vpwr scs8hd_decap_12
XFILLER_33_171 vgnd vpwr scs8hd_decap_12
XFILLER_31_27 vgnd vpwr scs8hd_decap_12
XFILLER_0_226 vgnd vpwr scs8hd_decap_6
XFILLER_0_215 vpwr vgnd scs8hd_fill_2
XANTENNA__45__B _53_/D vgnd vpwr scs8hd_diode_2
XPHY_100 vgnd vpwr scs8hd_tapvpwrvgnd_1
XFILLER_16_138 vgnd vpwr scs8hd_decap_12
XPHY_199 vgnd vpwr scs8hd_tapvpwrvgnd_1
XANTENNA__61__A address[5] vgnd vpwr scs8hd_diode_2
XPHY_111 vgnd vpwr scs8hd_tapvpwrvgnd_1
XPHY_122 vgnd vpwr scs8hd_tapvpwrvgnd_1
XPHY_133 vgnd vpwr scs8hd_tapvpwrvgnd_1
XPHY_144 vgnd vpwr scs8hd_tapvpwrvgnd_1
XPHY_155 vgnd vpwr scs8hd_tapvpwrvgnd_1
XFILLER_24_160 vpwr vgnd scs8hd_fill_2
XPHY_166 vgnd vpwr scs8hd_tapvpwrvgnd_1
XPHY_177 vgnd vpwr scs8hd_tapvpwrvgnd_1
XPHY_188 vgnd vpwr scs8hd_tapvpwrvgnd_1
XFILLER_21_71 vgnd vpwr scs8hd_decap_4
XFILLER_11_7 vpwr vgnd scs8hd_fill_2
XPHY_2 vgnd vpwr scs8hd_decap_3
XFILLER_15_193 vpwr vgnd scs8hd_fill_2
XFILLER_7_95 vpwr vgnd scs8hd_fill_2
XFILLER_7_62 vgnd vpwr scs8hd_decap_12
XFILLER_7_51 vgnd vpwr scs8hd_decap_8
XFILLER_30_141 vgnd vpwr scs8hd_decap_12
XFILLER_26_27 vgnd vpwr scs8hd_decap_4
XANTENNA__56__A _48_/A vgnd vpwr scs8hd_diode_2
XFILLER_16_93 vgnd vpwr scs8hd_fill_1
XFILLER_8_145 vgnd vpwr scs8hd_decap_8
XFILLER_35_211 vgnd vpwr scs8hd_decap_6
Xmux_top_ipin_2.mux_l1_in_0_.TGATE_0_.scs8hd_ebufn_2 mux_top_ipin_2.INVTX1_0_.scs8hd_inv_1/Y
+ _36_/A mux_top_ipin_2.mux_l1_in_0_.TGATE_1_.scs8hd_ebufn_2/Z vgnd vpwr scs8hd_ebufn_2
XANTENNA_mem_bottom_ipin_2.LATCH_1_.latch_SLEEPB _50_/Y vgnd vpwr scs8hd_diode_2
XFILLER_12_18 vgnd vpwr scs8hd_decap_12
XANTENNA__42__C address[0] vgnd vpwr scs8hd_diode_2
XFILLER_27_70 vgnd vpwr scs8hd_decap_4
XFILLER_27_81 vgnd vpwr scs8hd_decap_12
XANTENNA_mux_bottom_ipin_0.mux_l1_in_0_.TGATE_0_.scs8hd_ebufn_2_TEB mem_bottom_ipin_0.LATCH_0_.latch/Q
+ vgnd vpwr scs8hd_diode_2
XFILLER_23_214 vgnd vpwr scs8hd_fill_1
XFILLER_23_39 vgnd vpwr scs8hd_decap_4
XANTENNA__53__B _45_/D vgnd vpwr scs8hd_diode_2
XFILLER_1_184 vgnd vpwr scs8hd_decap_12
Xmem_top_ipin_0.LATCH_5_.latch data_in mem_top_ipin_0.LATCH_5_.latch/Q _54_/Y vgnd
+ vpwr scs8hd_lpflow_inputisolatch_1
X_41_ _48_/A address[2] _46_/C _44_/D _41_/Y vgnd vpwr scs8hd_nor4_4
XFILLER_20_206 vgnd vpwr scs8hd_decap_8
XFILLER_34_27 vgnd vpwr scs8hd_decap_4
XANTENNA__48__B address[2] vgnd vpwr scs8hd_diode_2
XANTENNA__64__A _63_/A vgnd vpwr scs8hd_diode_2
XFILLER_24_71 vgnd vpwr scs8hd_decap_4
X_24_ address[1] _48_/A vgnd vpwr scs8hd_inv_8
XFILLER_1_86 vgnd vpwr scs8hd_decap_12
XANTENNA_mux_bottom_ipin_2.mux_l2_in_0_.TGATE_2_.scs8hd_ebufn_2_A _68_/HI vgnd vpwr
+ scs8hd_diode_2
XFILLER_29_27 vgnd vpwr scs8hd_decap_12
XANTENNA_mem_bottom_ipin_0.LATCH_2_.latch_SLEEPB _42_/Y vgnd vpwr scs8hd_diode_2
XANTENNA__50__C _46_/C vgnd vpwr scs8hd_diode_2
XANTENNA__59__A address[1] vgnd vpwr scs8hd_diode_2
XFILLER_10_84 vgnd vpwr scs8hd_decap_3
XFILLER_34_117 vgnd vpwr scs8hd_decap_12
Xmux_bottom_ipin_1.INVTX1_1_.scs8hd_inv_1 chanx_right_in[1] mux_bottom_ipin_1.INVTX1_1_.scs8hd_inv_1/Y
+ vgnd vpwr scs8hd_inv_1
XFILLER_32_3 vgnd vpwr scs8hd_decap_12
XFILLER_25_106 vgnd vpwr scs8hd_fill_1
Xmux_top_ipin_0.INVTX1_1_.scs8hd_inv_1 chanx_right_in[2] mux_top_ipin_0.INVTX1_1_.scs8hd_inv_1/Y
+ vgnd vpwr scs8hd_inv_1
XFILLER_31_39 vgnd vpwr scs8hd_decap_12
XPHY_101 vgnd vpwr scs8hd_tapvpwrvgnd_1
XANTENNA__45__C address[5] vgnd vpwr scs8hd_diode_2
XPHY_112 vgnd vpwr scs8hd_tapvpwrvgnd_1
XPHY_123 vgnd vpwr scs8hd_tapvpwrvgnd_1
XPHY_134 vgnd vpwr scs8hd_tapvpwrvgnd_1
XFILLER_24_150 vgnd vpwr scs8hd_decap_3
XANTENNA__61__B address[4] vgnd vpwr scs8hd_diode_2
XPHY_145 vgnd vpwr scs8hd_tapvpwrvgnd_1
Xmem_bottom_ipin_0.LATCH_5_.latch data_in mem_bottom_ipin_0.LATCH_5_.latch/Q _39_/Y
+ vgnd vpwr scs8hd_lpflow_inputisolatch_1
XPHY_156 vgnd vpwr scs8hd_tapvpwrvgnd_1
XPHY_167 vgnd vpwr scs8hd_tapvpwrvgnd_1
XPHY_178 vgnd vpwr scs8hd_tapvpwrvgnd_1
XPHY_189 vgnd vpwr scs8hd_tapvpwrvgnd_1
XANTENNA_mem_bottom_ipin_0.LATCH_1_.latch_D data_in vgnd vpwr scs8hd_diode_2
XPHY_3 vgnd vpwr scs8hd_decap_3
XFILLER_15_172 vgnd vpwr scs8hd_fill_1
XFILLER_7_74 vgnd vpwr scs8hd_decap_6
Xmux_bottom_ipin_2.INVTX1_5_.scs8hd_inv_1 chanx_right_in[6] mux_bottom_ipin_2.INVTX1_5_.scs8hd_inv_1/Y
+ vgnd vpwr scs8hd_inv_1
XANTENNA__56__B address[2] vgnd vpwr scs8hd_diode_2
XFILLER_29_220 vgnd vpwr scs8hd_decap_12
XANTENNA__72__A chanx_right_in[8] vgnd vpwr scs8hd_diode_2
XFILLER_8_124 vpwr vgnd scs8hd_fill_2
XFILLER_8_157 vpwr vgnd scs8hd_fill_2
XFILLER_12_186 vpwr vgnd scs8hd_fill_2
XFILLER_32_93 vgnd vpwr scs8hd_decap_12
Xmem_top_ipin_1.LATCH_1_.latch data_in _33_/A _62_/Y vgnd vpwr scs8hd_lpflow_inputisolatch_1
XFILLER_5_127 vgnd vpwr scs8hd_decap_4
XANTENNA__42__D _44_/D vgnd vpwr scs8hd_diode_2
XFILLER_27_93 vgnd vpwr scs8hd_decap_12
XANTENNA_mux_top_ipin_0.mux_l1_in_0_.TGATE_0_.scs8hd_ebufn_2_A mux_top_ipin_0.INVTX1_0_.scs8hd_inv_1/Y
+ vgnd vpwr scs8hd_diode_2
XFILLER_32_215 vgnd vpwr scs8hd_decap_12
XFILLER_4_160 vgnd vpwr scs8hd_decap_8
XFILLER_2_119 vpwr vgnd scs8hd_fill_2
XANTENNA__53__C _53_/C vgnd vpwr scs8hd_diode_2
XFILLER_14_215 vgnd vpwr scs8hd_decap_12
XFILLER_13_73 vpwr vgnd scs8hd_fill_2
XFILLER_1_196 vgnd vpwr scs8hd_decap_12
X_40_ address[1] _46_/B address[0] _44_/D _40_/Y vgnd vpwr scs8hd_nor4_4
XFILLER_11_207 vgnd vpwr scs8hd_decap_4
XANTENNA__48__C _46_/C vgnd vpwr scs8hd_diode_2
XANTENNA__64__B address[4] vgnd vpwr scs8hd_diode_2
XFILLER_6_211 vgnd vpwr scs8hd_decap_3
XANTENNA__80__A chanx_right_in[0] vgnd vpwr scs8hd_diode_2
XFILLER_1_98 vgnd vpwr scs8hd_decap_4
Xmem_bottom_ipin_1.LATCH_1_.latch data_in _31_/A _60_/Y vgnd vpwr scs8hd_lpflow_inputisolatch_1
XFILLER_29_39 vgnd vpwr scs8hd_decap_12
XANTENNA__59__B address[2] vgnd vpwr scs8hd_diode_2
XANTENNA__50__D _46_/D vgnd vpwr scs8hd_diode_2
XFILLER_19_50 vgnd vpwr scs8hd_decap_4
XANTENNA__75__A chanx_right_in[5] vgnd vpwr scs8hd_diode_2
Xmux_top_ipin_1.mux_l1_in_0_.TGATE_0_.scs8hd_ebufn_2 mux_top_ipin_1.INVTX1_0_.scs8hd_inv_1/Y
+ _34_/A mux_top_ipin_1.mux_l1_in_0_.TGATE_0_.scs8hd_ebufn_2/Z vgnd vpwr scs8hd_ebufn_2
XFILLER_34_129 vgnd vpwr scs8hd_decap_12
XFILLER_25_3 vgnd vpwr scs8hd_decap_12
XFILLER_33_184 vgnd vpwr scs8hd_decap_12
XPHY_102 vgnd vpwr scs8hd_tapvpwrvgnd_1
XANTENNA__45__D _45_/D vgnd vpwr scs8hd_diode_2
XPHY_113 vgnd vpwr scs8hd_tapvpwrvgnd_1
XPHY_124 vgnd vpwr scs8hd_tapvpwrvgnd_1
XPHY_135 vgnd vpwr scs8hd_tapvpwrvgnd_1
XPHY_146 vgnd vpwr scs8hd_tapvpwrvgnd_1
XPHY_157 vgnd vpwr scs8hd_tapvpwrvgnd_1
XANTENNA__61__C _60_/C vgnd vpwr scs8hd_diode_2
XFILLER_21_62 vgnd vpwr scs8hd_decap_3
XPHY_168 vgnd vpwr scs8hd_tapvpwrvgnd_1
XPHY_179 vgnd vpwr scs8hd_tapvpwrvgnd_1
XPHY_4 vgnd vpwr scs8hd_decap_3
XFILLER_15_151 vpwr vgnd scs8hd_fill_2
XFILLER_30_154 vgnd vpwr scs8hd_decap_12
XFILLER_21_154 vpwr vgnd scs8hd_fill_2
XFILLER_21_187 vpwr vgnd scs8hd_fill_2
XANTENNA__56__C _46_/C vgnd vpwr scs8hd_diode_2
XFILLER_29_232 vgnd vpwr scs8hd_fill_1
XFILLER_12_165 vpwr vgnd scs8hd_fill_2
XFILLER_16_84 vgnd vpwr scs8hd_decap_6
XFILLER_8_169 vgnd vpwr scs8hd_fill_1
XANTENNA_mux_bottom_ipin_2.mux_l1_in_1_.TGATE_2_.scs8hd_ebufn_2_A mux_bottom_ipin_2.INVTX1_5_.scs8hd_inv_1/Y
+ vgnd vpwr scs8hd_diode_2
XFILLER_26_202 vgnd vpwr scs8hd_decap_12
Xmux_bottom_ipin_0.INVTX1_5_.scs8hd_inv_1 chanx_right_in[8] mux_bottom_ipin_0.INVTX1_5_.scs8hd_inv_1/Y
+ vgnd vpwr scs8hd_inv_1
XANTENNA_mux_top_ipin_0.mux_l2_in_0_.TGATE_0_.scs8hd_ebufn_2_TEB mem_top_ipin_0.LATCH_3_.latch/Q
+ vgnd vpwr scs8hd_diode_2
XANTENNA__83__A chanx_left_in[6] vgnd vpwr scs8hd_diode_2
XFILLER_32_227 vgnd vpwr scs8hd_decap_6
XFILLER_4_32 vgnd vpwr scs8hd_decap_12
Xmux_top_ipin_2.mux_l2_in_0_.TGATE_1_.scs8hd_ebufn_2 _71_/HI _35_/Y mux_top_ipin_2.tap_buf4_0_.scs8hd_inv_1/A
+ vgnd vpwr scs8hd_ebufn_2
XFILLER_14_227 vgnd vpwr scs8hd_decap_6
XANTENNA__53__D _53_/D vgnd vpwr scs8hd_diode_2
XFILLER_13_30 vpwr vgnd scs8hd_fill_2
XANTENNA__78__A chanx_right_in[2] vgnd vpwr scs8hd_diode_2
XFILLER_13_96 vpwr vgnd scs8hd_fill_2
XFILLER_1_164 vpwr vgnd scs8hd_fill_2
XFILLER_9_231 vpwr vgnd scs8hd_fill_2
XFILLER_11_219 vpwr vgnd scs8hd_fill_2
XANTENNA__48__D _46_/D vgnd vpwr scs8hd_diode_2
XANTENNA__64__C _60_/C vgnd vpwr scs8hd_diode_2
XFILLER_10_230 vgnd vpwr scs8hd_decap_3
XFILLER_24_84 vgnd vpwr scs8hd_decap_8
XFILLER_28_105 vgnd vpwr scs8hd_decap_12
XANTENNA__59__C address[0] vgnd vpwr scs8hd_diode_2
XFILLER_27_171 vgnd vpwr scs8hd_decap_12
XFILLER_35_94 vgnd vpwr scs8hd_decap_12
XFILLER_18_3 vgnd vpwr scs8hd_decap_12
XFILLER_33_196 vgnd vpwr scs8hd_fill_1
XFILLER_0_207 vgnd vpwr scs8hd_decap_8
XFILLER_16_119 vgnd vpwr scs8hd_fill_1
XPHY_103 vgnd vpwr scs8hd_tapvpwrvgnd_1
XPHY_114 vgnd vpwr scs8hd_tapvpwrvgnd_1
XPHY_125 vgnd vpwr scs8hd_tapvpwrvgnd_1