* NGSPICE file created from cbx_1__1_.ext - technology: EFS8A

* Black-box entry subcircuit for scs8hd_fill_1 abstract view
.subckt scs8hd_fill_1 vgnd vpwr
.ends

* Black-box entry subcircuit for scs8hd_decap_12 abstract view
.subckt scs8hd_decap_12 vgnd vpwr
.ends

* Black-box entry subcircuit for scs8hd_lpflow_inputisolatch_1 abstract view
.subckt scs8hd_lpflow_inputisolatch_1 D Q SLEEPB vgnd vpwr
.ends

* Black-box entry subcircuit for scs8hd_fill_2 abstract view
.subckt scs8hd_fill_2 vpwr vgnd
.ends

* Black-box entry subcircuit for scs8hd_decap_4 abstract view
.subckt scs8hd_decap_4 vgnd vpwr
.ends

* Black-box entry subcircuit for scs8hd_diode_2 abstract view
.subckt scs8hd_diode_2 DIODE vgnd vpwr
.ends

* Black-box entry subcircuit for scs8hd_nor4_4 abstract view
.subckt scs8hd_nor4_4 A B C D Y vgnd vpwr
.ends

* Black-box entry subcircuit for scs8hd_decap_3 abstract view
.subckt scs8hd_decap_3 vgnd vpwr
.ends

* Black-box entry subcircuit for scs8hd_decap_6 abstract view
.subckt scs8hd_decap_6 vgnd vpwr
.ends

* Black-box entry subcircuit for scs8hd_buf_1 abstract view
.subckt scs8hd_buf_1 A X vgnd vpwr
.ends

* Black-box entry subcircuit for scs8hd_buf_2 abstract view
.subckt scs8hd_buf_2 A X vgnd vpwr
.ends

* Black-box entry subcircuit for scs8hd_ebufn_2 abstract view
.subckt scs8hd_ebufn_2 A TEB Z vgnd vpwr
.ends

* Black-box entry subcircuit for scs8hd_decap_8 abstract view
.subckt scs8hd_decap_8 vgnd vpwr
.ends

* Black-box entry subcircuit for scs8hd_inv_1 abstract view
.subckt scs8hd_inv_1 A Y vgnd vpwr
.ends

* Black-box entry subcircuit for scs8hd_tapvpwrvgnd_1 abstract view
.subckt scs8hd_tapvpwrvgnd_1 vgnd vpwr
.ends

* Black-box entry subcircuit for scs8hd_or4_4 abstract view
.subckt scs8hd_or4_4 A B C D X vgnd vpwr
.ends

* Black-box entry subcircuit for scs8hd_inv_8 abstract view
.subckt scs8hd_inv_8 A Y vgnd vpwr
.ends

* Black-box entry subcircuit for scs8hd_conb_1 abstract view
.subckt scs8hd_conb_1 HI LO vgnd vpwr
.ends

* Black-box entry subcircuit for scs8hd_or2_4 abstract view
.subckt scs8hd_or2_4 A B X vgnd vpwr
.ends

.subckt cbx_1__1_ address[0] address[1] address[2] address[3] address[4] address[5]
+ bottom_grid_pin_0_ bottom_grid_pin_4_ bottom_grid_pin_8_ chanx_left_in[0] chanx_left_in[1]
+ chanx_left_in[2] chanx_left_in[3] chanx_left_in[4] chanx_left_in[5] chanx_left_in[6]
+ chanx_left_in[7] chanx_left_in[8] chanx_left_out[0] chanx_left_out[1] chanx_left_out[2]
+ chanx_left_out[3] chanx_left_out[4] chanx_left_out[5] chanx_left_out[6] chanx_left_out[7]
+ chanx_left_out[8] chanx_right_in[0] chanx_right_in[1] chanx_right_in[2] chanx_right_in[3]
+ chanx_right_in[4] chanx_right_in[5] chanx_right_in[6] chanx_right_in[7] chanx_right_in[8]
+ chanx_right_out[0] chanx_right_out[1] chanx_right_out[2] chanx_right_out[3] chanx_right_out[4]
+ chanx_right_out[5] chanx_right_out[6] chanx_right_out[7] chanx_right_out[8] data_in
+ enable top_grid_pin_14_ top_grid_pin_2_ top_grid_pin_6_ vpwr vgnd
XFILLER_18_406 vgnd vpwr scs8hd_fill_1
XFILLER_5_354 vgnd vpwr scs8hd_decap_12
Xmem_bottom_ipin_2.LATCH_1_.latch data_in mem_bottom_ipin_2.LATCH_1_.latch/Q _062_/Y
+ vgnd vpwr scs8hd_lpflow_inputisolatch_1
XFILLER_6_118 vpwr vgnd scs8hd_fill_2
XFILLER_6_129 vpwr vgnd scs8hd_fill_2
XFILLER_12_32 vgnd vpwr scs8hd_decap_12
XFILLER_2_346 vgnd vpwr scs8hd_decap_12
XFILLER_2_324 vgnd vpwr scs8hd_decap_4
XANTENNA_mux_bottom_ipin_1.mux_l1_in_0_.TGATE_1_.scs8hd_ebufn_2_TEB _087_/Y vgnd vpwr
+ scs8hd_diode_2
X_062_ _074_/A _074_/B _040_/X _062_/D _062_/Y vgnd vpwr scs8hd_nor4_4
XFILLER_7_405 vpwr vgnd scs8hd_fill_2
XANTENNA_mem_top_ipin_0.LATCH_3_.latch_D data_in vgnd vpwr scs8hd_diode_2
XFILLER_9_11 vgnd vpwr scs8hd_decap_3
XANTENNA_mem_top_ipin_1.LATCH_1_.latch_D data_in vgnd vpwr scs8hd_diode_2
XFILLER_20_242 vgnd vpwr scs8hd_decap_6
X_045_ address[0] _063_/C vgnd vpwr scs8hd_buf_1
XFILLER_7_224 vpwr vgnd scs8hd_fill_2
X_114_ chanx_left_in[1] chanx_right_out[1] vgnd vpwr scs8hd_buf_2
XFILLER_19_342 vgnd vpwr scs8hd_decap_12
XANTENNA_mux_top_ipin_2.INVTX1_1_.scs8hd_inv_1_A chanx_right_in[5] vgnd vpwr scs8hd_diode_2
Xmux_top_ipin_0.mux_l1_in_1_.TGATE_0_.scs8hd_ebufn_2 mux_top_ipin_0.INVTX1_3_.scs8hd_inv_1/Y
+ mem_top_ipin_0.LATCH_0_.latch/Q mux_top_ipin_0.mux_l1_in_1_.TGATE_1_.scs8hd_ebufn_2/Z
+ vgnd vpwr scs8hd_ebufn_2
XFILLER_20_32 vgnd vpwr scs8hd_decap_12
XFILLER_20_87 vgnd vpwr scs8hd_decap_6
XFILLER_16_312 vgnd vpwr scs8hd_decap_12
XFILLER_16_389 vgnd vpwr scs8hd_decap_8
XFILLER_6_23 vpwr vgnd scs8hd_fill_2
XFILLER_3_260 vpwr vgnd scs8hd_fill_2
XANTENNA_mux_top_ipin_0.mux_l1_in_0_.TGATE_2_.scs8hd_ebufn_2_A mux_top_ipin_0.INVTX1_2_.scs8hd_inv_1/Y
+ vgnd vpwr scs8hd_diode_2
Xmux_bottom_ipin_0.mux_l2_in_0_.TGATE_2_.scs8hd_ebufn_2 _092_/HI mem_bottom_ipin_0.LATCH_5_.latch/Q
+ mux_bottom_ipin_0.tap_buf4_0_.scs8hd_inv_1/A vgnd vpwr scs8hd_ebufn_2
XFILLER_13_3 vgnd vpwr scs8hd_decap_12
XANTENNA__042__A address[5] vgnd vpwr scs8hd_diode_2
Xmux_bottom_ipin_0.INVTX1_3_.scs8hd_inv_1 chanx_right_in[4] mux_bottom_ipin_0.INVTX1_3_.scs8hd_inv_1/Y
+ vgnd vpwr scs8hd_inv_1
XFILLER_15_98 vgnd vpwr scs8hd_decap_12
XFILLER_0_274 vgnd vpwr scs8hd_decap_4
XPHY_170 vgnd vpwr scs8hd_tapvpwrvgnd_1
XPHY_181 vgnd vpwr scs8hd_tapvpwrvgnd_1
XANTENNA__037__A address[1] vgnd vpwr scs8hd_diode_2
XFILLER_7_8 vpwr vgnd scs8hd_fill_2
XFILLER_13_123 vgnd vpwr scs8hd_decap_12
XFILLER_3_13 vpwr vgnd scs8hd_fill_2
XANTENNA_mux_top_ipin_0.mux_l2_in_0_.TGATE_0_.scs8hd_ebufn_2_A mux_top_ipin_0.mux_l1_in_0_.TGATE_2_.scs8hd_ebufn_2/Z
+ vgnd vpwr scs8hd_diode_2
XANTENNA_mux_bottom_ipin_1.mux_l1_in_0_.TGATE_1_.scs8hd_ebufn_2_A mux_bottom_ipin_1.INVTX1_1_.scs8hd_inv_1/Y
+ vgnd vpwr scs8hd_diode_2
XFILLER_12_44 vgnd vpwr scs8hd_decap_12
XFILLER_2_358 vgnd vpwr scs8hd_decap_12
XFILLER_18_215 vgnd vpwr scs8hd_decap_12
XFILLER_1_391 vgnd vpwr scs8hd_decap_12
XFILLER_17_281 vgnd vpwr scs8hd_decap_12
XANTENNA__050__A _072_/A vgnd vpwr scs8hd_diode_2
Xmux_top_ipin_0.tap_buf4_0_.scs8hd_inv_1 mux_top_ipin_0.tap_buf4_0_.scs8hd_inv_1/A
+ bottom_grid_pin_0_ vgnd vpwr scs8hd_inv_1
X_061_ address[2] _074_/B vgnd vpwr scs8hd_buf_1
XFILLER_2_144 vpwr vgnd scs8hd_fill_2
XFILLER_0_58 vpwr vgnd scs8hd_fill_2
XFILLER_14_251 vgnd vpwr scs8hd_decap_12
XANTENNA__045__A address[0] vgnd vpwr scs8hd_diode_2
XFILLER_18_32 vgnd vpwr scs8hd_decap_12
X_113_ chanx_left_in[2] chanx_right_out[2] vgnd vpwr scs8hd_buf_2
XFILLER_7_203 vpwr vgnd scs8hd_fill_2
XFILLER_7_236 vpwr vgnd scs8hd_fill_2
XFILLER_11_243 vgnd vpwr scs8hd_fill_1
X_044_ _057_/A _057_/B _040_/X _049_/D _044_/Y vgnd vpwr scs8hd_nor4_4
XFILLER_19_354 vgnd vpwr scs8hd_decap_12
XFILLER_20_44 vgnd vpwr scs8hd_decap_12
XFILLER_16_324 vgnd vpwr scs8hd_decap_12
XFILLER_19_184 vgnd vpwr scs8hd_decap_12
XANTENNA__042__B address[4] vgnd vpwr scs8hd_diode_2
XANTENNA_mem_bottom_ipin_0.LATCH_5_.latch_D data_in vgnd vpwr scs8hd_diode_2
XFILLER_0_231 vgnd vpwr scs8hd_decap_4
XFILLER_16_154 vgnd vpwr scs8hd_decap_12
XPHY_160 vgnd vpwr scs8hd_tapvpwrvgnd_1
XPHY_171 vgnd vpwr scs8hd_tapvpwrvgnd_1
XPHY_182 vgnd vpwr scs8hd_tapvpwrvgnd_1
XANTENNA_mem_bottom_ipin_2.LATCH_1_.latch_D data_in vgnd vpwr scs8hd_diode_2
XANTENNA__053__A address[4] vgnd vpwr scs8hd_diode_2
Xmem_top_ipin_0.LATCH_4_.latch data_in mem_top_ipin_0.LATCH_4_.latch/Q _070_/Y vgnd
+ vpwr scs8hd_lpflow_inputisolatch_1
XFILLER_13_135 vgnd vpwr scs8hd_decap_12
XFILLER_5_367 vgnd vpwr scs8hd_decap_12
XFILLER_12_190 vgnd vpwr scs8hd_decap_12
XANTENNA__048__A address[2] vgnd vpwr scs8hd_diode_2
XFILLER_12_56 vgnd vpwr scs8hd_decap_12
Xmux_bottom_ipin_2.mux_l1_in_0_.TGATE_2_.scs8hd_ebufn_2 mux_bottom_ipin_2.INVTX1_2_.scs8hd_inv_1/Y
+ mem_bottom_ipin_2.LATCH_2_.latch/Q mux_bottom_ipin_2.mux_l1_in_0_.TGATE_1_.scs8hd_ebufn_2/Z
+ vgnd vpwr scs8hd_ebufn_2
XFILLER_18_227 vgnd vpwr scs8hd_decap_12
XANTENNA_mux_top_ipin_1.mux_l2_in_0_.TGATE_1_.scs8hd_ebufn_2_TEB _088_/Y vgnd vpwr
+ scs8hd_diode_2
XFILLER_5_175 vpwr vgnd scs8hd_fill_2
XFILLER_17_293 vgnd vpwr scs8hd_decap_12
XANTENNA__050__B _049_/B vgnd vpwr scs8hd_diode_2
XFILLER_15_208 vgnd vpwr scs8hd_decap_12
XFILLER_3_3 vgnd vpwr scs8hd_decap_3
X_060_ address[1] _074_/A vgnd vpwr scs8hd_buf_1
XFILLER_0_37 vpwr vgnd scs8hd_fill_2
XFILLER_9_35 vpwr vgnd scs8hd_fill_2
XFILLER_14_263 vgnd vpwr scs8hd_decap_12
XFILLER_9_68 vpwr vgnd scs8hd_fill_2
XFILLER_9_79 vpwr vgnd scs8hd_fill_2
XFILLER_20_211 vgnd vpwr scs8hd_decap_6
Xmem_bottom_ipin_0.LATCH_4_.latch data_in mem_bottom_ipin_0.LATCH_4_.latch/Q _046_/Y
+ vgnd vpwr scs8hd_lpflow_inputisolatch_1
XANTENNA__061__A address[2] vgnd vpwr scs8hd_diode_2
XANTENNA_mux_top_ipin_0.mux_l1_in_1_.TGATE_0_.scs8hd_ebufn_2_A mux_top_ipin_0.INVTX1_3_.scs8hd_inv_1/Y
+ vgnd vpwr scs8hd_diode_2
XFILLER_18_44 vgnd vpwr scs8hd_decap_12
X_043_ _042_/X _049_/D vgnd vpwr scs8hd_buf_1
X_112_ chanx_left_in[3] chanx_right_out[3] vgnd vpwr scs8hd_buf_2
XFILLER_19_377 vpwr vgnd scs8hd_fill_2
XFILLER_1_80 vpwr vgnd scs8hd_fill_2
XANTENNA__056__A _057_/A vgnd vpwr scs8hd_diode_2
XFILLER_20_56 vgnd vpwr scs8hd_decap_6
Xmem_top_ipin_1.LATCH_0_.latch data_in _089_/A _083_/Y vgnd vpwr scs8hd_lpflow_inputisolatch_1
XFILLER_19_196 vgnd vpwr scs8hd_decap_12
XANTENNA__042__C address[3] vgnd vpwr scs8hd_diode_2
XFILLER_13_306 vgnd vpwr scs8hd_decap_12
XFILLER_16_166 vgnd vpwr scs8hd_decap_12
XFILLER_8_321 vgnd vpwr scs8hd_decap_12
XFILLER_12_361 vgnd vpwr scs8hd_decap_12
XPHY_150 vgnd vpwr scs8hd_tapvpwrvgnd_1
XPHY_161 vgnd vpwr scs8hd_tapvpwrvgnd_1
XPHY_172 vgnd vpwr scs8hd_tapvpwrvgnd_1
XPHY_183 vgnd vpwr scs8hd_tapvpwrvgnd_1
XFILLER_8_398 vgnd vpwr scs8hd_decap_8
XFILLER_9_118 vpwr vgnd scs8hd_fill_2
XFILLER_13_147 vgnd vpwr scs8hd_decap_12
XFILLER_5_379 vgnd vpwr scs8hd_decap_12
XFILLER_3_26 vpwr vgnd scs8hd_fill_2
XANTENNA_mux_top_ipin_1.mux_l2_in_0_.TGATE_0_.scs8hd_ebufn_2_A mux_top_ipin_1.mux_l2_in_0_.TGATE_0_.scs8hd_ebufn_2/A
+ vgnd vpwr scs8hd_diode_2
XANTENNA_mux_bottom_ipin_2.mux_l1_in_0_.TGATE_1_.scs8hd_ebufn_2_A mux_bottom_ipin_2.INVTX1_1_.scs8hd_inv_1/Y
+ vgnd vpwr scs8hd_diode_2
XANTENNA__064__A _040_/A vgnd vpwr scs8hd_diode_2
XFILLER_5_7 vpwr vgnd scs8hd_fill_2
XFILLER_12_68 vgnd vpwr scs8hd_decap_12
XFILLER_18_239 vgnd vpwr scs8hd_decap_12
Xmem_bottom_ipin_1.LATCH_0_.latch data_in _087_/A _079_/Y vgnd vpwr scs8hd_lpflow_inputisolatch_1
XFILLER_5_154 vgnd vpwr scs8hd_decap_4
XFILLER_5_198 vpwr vgnd scs8hd_fill_2
XFILLER_20_404 vgnd vpwr scs8hd_decap_3
XANTENNA__050__C _063_/C vgnd vpwr scs8hd_diode_2
XANTENNA__059__A _072_/A vgnd vpwr scs8hd_diode_2
XFILLER_2_179 vpwr vgnd scs8hd_fill_2
XFILLER_2_102 vpwr vgnd scs8hd_fill_2
XFILLER_0_27 vpwr vgnd scs8hd_fill_2
Xmux_top_ipin_2.mux_l2_in_0_.TGATE_0_.scs8hd_ebufn_2 mux_top_ipin_2.mux_l1_in_0_.TGATE_0_.scs8hd_ebufn_2/Z
+ _090_/A mux_top_ipin_2.tap_buf4_0_.scs8hd_inv_1/A vgnd vpwr scs8hd_ebufn_2
Xmux_bottom_ipin_2.INVTX1_0_.scs8hd_inv_1 chanx_left_in[1] mux_bottom_ipin_2.INVTX1_0_.scs8hd_inv_1/Y
+ vgnd vpwr scs8hd_inv_1
XFILLER_18_56 vgnd vpwr scs8hd_decap_12
X_042_ address[5] address[4] address[3] _076_/B _042_/X vgnd vpwr scs8hd_or4_4
Xmux_top_ipin_1.INVTX1_0_.scs8hd_inv_1 chanx_left_in[4] mux_top_ipin_1.INVTX1_0_.scs8hd_inv_1/Y
+ vgnd vpwr scs8hd_inv_1
XFILLER_11_245 vgnd vpwr scs8hd_decap_12
X_111_ chanx_left_in[4] chanx_right_out[4] vgnd vpwr scs8hd_buf_2
XFILLER_19_367 vgnd vpwr scs8hd_decap_6
XFILLER_4_208 vpwr vgnd scs8hd_fill_2
XANTENNA__072__A _072_/A vgnd vpwr scs8hd_diode_2
XANTENNA__056__B _057_/B vgnd vpwr scs8hd_diode_2
XFILLER_16_337 vgnd vpwr scs8hd_decap_12
XFILLER_3_241 vgnd vpwr scs8hd_fill_1
XFILLER_6_59 vpwr vgnd scs8hd_fill_2
XANTENNA__042__D _076_/B vgnd vpwr scs8hd_diode_2
XANTENNA__067__A _067_/A vgnd vpwr scs8hd_diode_2
XFILLER_13_318 vgnd vpwr scs8hd_decap_12
XFILLER_0_200 vpwr vgnd scs8hd_fill_2
XFILLER_16_178 vgnd vpwr scs8hd_decap_12
XFILLER_8_333 vgnd vpwr scs8hd_decap_3
XPHY_140 vgnd vpwr scs8hd_tapvpwrvgnd_1
XPHY_151 vgnd vpwr scs8hd_tapvpwrvgnd_1
XPHY_162 vgnd vpwr scs8hd_tapvpwrvgnd_1
XPHY_173 vgnd vpwr scs8hd_tapvpwrvgnd_1
XPHY_184 vgnd vpwr scs8hd_tapvpwrvgnd_1
XFILLER_11_3 vpwr vgnd scs8hd_fill_2
XANTENNA_mux_bottom_ipin_1.mux_l2_in_0_.TGATE_1_.scs8hd_ebufn_2_TEB _086_/Y vgnd vpwr
+ scs8hd_diode_2
XFILLER_13_159 vgnd vpwr scs8hd_decap_12
XFILLER_8_163 vgnd vpwr scs8hd_decap_3
XANTENNA__080__A address[5] vgnd vpwr scs8hd_diode_2
XANTENNA_mem_bottom_ipin_2.LATCH_4_.latch_SLEEPB _057_/Y vgnd vpwr scs8hd_diode_2
XFILLER_1_361 vgnd vpwr scs8hd_decap_4
XANTENNA__050__D _049_/D vgnd vpwr scs8hd_diode_2
XANTENNA__059__B _049_/B vgnd vpwr scs8hd_diode_2
XANTENNA__075__A address[4] vgnd vpwr scs8hd_diode_2
XFILLER_2_158 vpwr vgnd scs8hd_fill_2
XFILLER_14_276 vgnd vpwr scs8hd_decap_12
XFILLER_9_280 vgnd vpwr scs8hd_decap_12
XANTENNA_mux_top_ipin_1.INVTX1_0_.scs8hd_inv_1_A chanx_left_in[4] vgnd vpwr scs8hd_diode_2
XFILLER_18_68 vgnd vpwr scs8hd_decap_12
X_110_ chanx_left_in[5] chanx_right_out[5] vgnd vpwr scs8hd_buf_2
XFILLER_11_257 vgnd vpwr scs8hd_decap_12
X_041_ enable _076_/B vgnd vpwr scs8hd_inv_8
XFILLER_7_228 vpwr vgnd scs8hd_fill_2
XANTENNA_mux_bottom_ipin_0.mux_l2_in_0_.TGATE_2_.scs8hd_ebufn_2_A _092_/HI vgnd vpwr
+ scs8hd_diode_2
XFILLER_6_272 vgnd vpwr scs8hd_fill_1
XANTENNA__056__C _040_/X vgnd vpwr scs8hd_diode_2
XANTENNA__072__B _074_/B vgnd vpwr scs8hd_diode_2
XANTENNA_mem_top_ipin_1.LATCH_1_.latch_SLEEPB _082_/Y vgnd vpwr scs8hd_diode_2
XFILLER_0_404 vgnd vpwr scs8hd_decap_3
XFILLER_16_349 vgnd vpwr scs8hd_decap_12
Xmux_bottom_ipin_0.INVTX1_0_.scs8hd_inv_1 chanx_left_in[0] mux_bottom_ipin_0.INVTX1_0_.scs8hd_inv_1/Y
+ vgnd vpwr scs8hd_inv_1
XFILLER_3_231 vpwr vgnd scs8hd_fill_2
XFILLER_3_275 vpwr vgnd scs8hd_fill_2
XFILLER_3_286 vpwr vgnd scs8hd_fill_2
XFILLER_6_27 vpwr vgnd scs8hd_fill_2
XFILLER_6_49 vpwr vgnd scs8hd_fill_2
XFILLER_19_110 vgnd vpwr scs8hd_decap_12
XANTENNA_mem_bottom_ipin_0.LATCH_5_.latch_SLEEPB _044_/Y vgnd vpwr scs8hd_diode_2
XANTENNA__083__A _084_/A vgnd vpwr scs8hd_diode_2
XFILLER_0_278 vgnd vpwr scs8hd_fill_1
XPHY_130 vgnd vpwr scs8hd_tapvpwrvgnd_1
XPHY_141 vgnd vpwr scs8hd_tapvpwrvgnd_1
XPHY_152 vgnd vpwr scs8hd_tapvpwrvgnd_1
XFILLER_8_367 vgnd vpwr scs8hd_decap_12
XPHY_163 vgnd vpwr scs8hd_tapvpwrvgnd_1
XPHY_174 vgnd vpwr scs8hd_tapvpwrvgnd_1
XPHY_185 vgnd vpwr scs8hd_tapvpwrvgnd_1
XANTENNA_mux_top_ipin_0.tap_buf4_0_.scs8hd_inv_1_A mux_top_ipin_0.tap_buf4_0_.scs8hd_inv_1/A
+ vgnd vpwr scs8hd_diode_2
Xmux_top_ipin_0.INVTX1_4_.scs8hd_inv_1 chanx_left_in[7] mux_top_ipin_0.INVTX1_4_.scs8hd_inv_1/Y
+ vgnd vpwr scs8hd_inv_1
XFILLER_7_81 vgnd vpwr scs8hd_fill_1
XANTENNA__078__A address[5] vgnd vpwr scs8hd_diode_2
Xmux_top_ipin_1.mux_l2_in_0_.TGATE_0_.scs8hd_ebufn_2 mux_top_ipin_1.mux_l2_in_0_.TGATE_0_.scs8hd_ebufn_2/A
+ _088_/A mux_top_ipin_1.tap_buf4_0_.scs8hd_inv_1/A vgnd vpwr scs8hd_ebufn_2
XANTENNA_mux_top_ipin_2.mux_l2_in_0_.TGATE_0_.scs8hd_ebufn_2_A mux_top_ipin_2.mux_l1_in_0_.TGATE_0_.scs8hd_ebufn_2/Z
+ vgnd vpwr scs8hd_diode_2
XFILLER_8_142 vgnd vpwr scs8hd_fill_1
XFILLER_8_186 vpwr vgnd scs8hd_fill_2
XFILLER_8_197 vgnd vpwr scs8hd_decap_8
XFILLER_10_108 vpwr vgnd scs8hd_fill_2
XFILLER_12_15 vgnd vpwr scs8hd_decap_12
XFILLER_5_123 vpwr vgnd scs8hd_fill_2
XFILLER_5_134 vpwr vgnd scs8hd_fill_2
XANTENNA__059__C _063_/C vgnd vpwr scs8hd_diode_2
XANTENNA__091__A _091_/A vgnd vpwr scs8hd_diode_2
XFILLER_2_148 vgnd vpwr scs8hd_decap_3
XFILLER_9_16 vpwr vgnd scs8hd_fill_2
XFILLER_14_288 vgnd vpwr scs8hd_decap_12
Xmux_bottom_ipin_0.mux_l1_in_0_.TGATE_2_.scs8hd_ebufn_2 mux_bottom_ipin_0.INVTX1_2_.scs8hd_inv_1/Y
+ mem_bottom_ipin_0.LATCH_2_.latch/Q mux_bottom_ipin_0.mux_l2_in_0_.TGATE_0_.scs8hd_ebufn_2/A
+ vgnd vpwr scs8hd_ebufn_2
XFILLER_9_292 vgnd vpwr scs8hd_decap_12
XANTENNA__086__A _086_/A vgnd vpwr scs8hd_diode_2
XFILLER_11_203 vgnd vpwr scs8hd_decap_12
XFILLER_11_269 vgnd vpwr scs8hd_decap_12
X_040_ _040_/A _040_/X vgnd vpwr scs8hd_buf_1
XFILLER_6_251 vgnd vpwr scs8hd_decap_6
XFILLER_6_262 vpwr vgnd scs8hd_fill_2
XANTENNA_mem_bottom_ipin_2.LATCH_4_.latch_D data_in vgnd vpwr scs8hd_diode_2
XANTENNA__056__D _062_/D vgnd vpwr scs8hd_diode_2
XANTENNA__072__C _069_/X vgnd vpwr scs8hd_diode_2
XFILLER_20_15 vgnd vpwr scs8hd_decap_12
XANTENNA_mux_bottom_ipin_2.INVTX1_5_.scs8hd_inv_1_A chanx_right_in[6] vgnd vpwr scs8hd_diode_2
XFILLER_15_15 vgnd vpwr scs8hd_decap_12
XANTENNA__083__B _075_/X vgnd vpwr scs8hd_diode_2
XFILLER_15_59 vpwr vgnd scs8hd_fill_2
XFILLER_0_246 vpwr vgnd scs8hd_fill_2
XFILLER_0_213 vpwr vgnd scs8hd_fill_2
XFILLER_0_257 vgnd vpwr scs8hd_decap_3
XPHY_120 vgnd vpwr scs8hd_tapvpwrvgnd_1
XPHY_131 vgnd vpwr scs8hd_tapvpwrvgnd_1
XPHY_142 vgnd vpwr scs8hd_tapvpwrvgnd_1
XPHY_153 vgnd vpwr scs8hd_tapvpwrvgnd_1
XPHY_164 vgnd vpwr scs8hd_tapvpwrvgnd_1
XPHY_175 vgnd vpwr scs8hd_tapvpwrvgnd_1
XPHY_186 vgnd vpwr scs8hd_tapvpwrvgnd_1
XFILLER_8_379 vgnd vpwr scs8hd_decap_12
XPHY_0 vgnd vpwr scs8hd_decap_3
XANTENNA__078__B _075_/X vgnd vpwr scs8hd_diode_2
XANTENNA_mux_bottom_ipin_0.mux_l1_in_1_.TGATE_2_.scs8hd_ebufn_2_A mux_bottom_ipin_0.INVTX1_5_.scs8hd_inv_1/Y
+ vgnd vpwr scs8hd_diode_2
XFILLER_8_121 vpwr vgnd scs8hd_fill_2
XFILLER_16_80 vgnd vpwr scs8hd_decap_12
XFILLER_8_176 vgnd vpwr scs8hd_fill_1
XFILLER_12_27 vgnd vpwr scs8hd_decap_4
XANTENNA__089__A _089_/A vgnd vpwr scs8hd_diode_2
XFILLER_5_113 vpwr vgnd scs8hd_fill_2
XFILLER_5_179 vpwr vgnd scs8hd_fill_2
XANTENNA__059__D _062_/D vgnd vpwr scs8hd_diode_2
XFILLER_2_127 vpwr vgnd scs8hd_fill_2
XFILLER_9_39 vgnd vpwr scs8hd_decap_3
XFILLER_1_160 vgnd vpwr scs8hd_decap_4
XFILLER_18_15 vgnd vpwr scs8hd_decap_12
Xmem_bottom_ipin_2.LATCH_2_.latch data_in mem_bottom_ipin_2.LATCH_2_.latch/Q _059_/Y
+ vgnd vpwr scs8hd_lpflow_inputisolatch_1
XFILLER_11_215 vgnd vpwr scs8hd_decap_12
XANTENNA_mux_top_ipin_0.mux_l1_in_0_.TGATE_0_.scs8hd_ebufn_2_TEB mem_top_ipin_0.LATCH_0_.latch/Q
+ vgnd vpwr scs8hd_diode_2
XANTENNA_mux_top_ipin_0.INVTX1_4_.scs8hd_inv_1_A chanx_left_in[7] vgnd vpwr scs8hd_diode_2
XFILLER_6_285 vpwr vgnd scs8hd_fill_2
X_099_ chanx_right_in[7] chanx_left_out[7] vgnd vpwr scs8hd_buf_2
XFILLER_1_51 vpwr vgnd scs8hd_fill_2
XFILLER_1_62 vgnd vpwr scs8hd_decap_3
XFILLER_1_84 vpwr vgnd scs8hd_fill_2
XANTENNA__072__D _074_/D vgnd vpwr scs8hd_diode_2
XANTENNA_mux_bottom_ipin_0.INVTX1_2_.scs8hd_inv_1_A chanx_left_in[4] vgnd vpwr scs8hd_diode_2
XFILLER_20_27 vgnd vpwr scs8hd_decap_4
Xmux_top_ipin_0.mux_l2_in_0_.TGATE_0_.scs8hd_ebufn_2 mux_top_ipin_0.mux_l1_in_0_.TGATE_2_.scs8hd_ebufn_2/Z
+ mem_top_ipin_0.LATCH_3_.latch/Q mux_top_ipin_0.tap_buf4_0_.scs8hd_inv_1/A vgnd vpwr
+ scs8hd_ebufn_2
XFILLER_19_123 vgnd vpwr scs8hd_decap_12
XFILLER_15_27 vgnd vpwr scs8hd_decap_12
XANTENNA__083__C _083_/C vgnd vpwr scs8hd_diode_2
XPHY_187 vgnd vpwr scs8hd_tapvpwrvgnd_1
XPHY_176 vgnd vpwr scs8hd_tapvpwrvgnd_1
XPHY_110 vgnd vpwr scs8hd_tapvpwrvgnd_1
XPHY_121 vgnd vpwr scs8hd_tapvpwrvgnd_1
XPHY_132 vgnd vpwr scs8hd_tapvpwrvgnd_1
XPHY_143 vgnd vpwr scs8hd_tapvpwrvgnd_1
XPHY_154 vgnd vpwr scs8hd_tapvpwrvgnd_1
XPHY_165 vgnd vpwr scs8hd_tapvpwrvgnd_1
XFILLER_12_398 vgnd vpwr scs8hd_decap_8
XPHY_1 vgnd vpwr scs8hd_decap_3
XANTENNA__078__C _077_/X vgnd vpwr scs8hd_diode_2
XFILLER_5_306 vgnd vpwr scs8hd_decap_12
XFILLER_4_361 vgnd vpwr scs8hd_decap_12
XFILLER_4_84 vpwr vgnd scs8hd_fill_2
XFILLER_2_106 vpwr vgnd scs8hd_fill_2
XFILLER_9_29 vgnd vpwr scs8hd_decap_4
XFILLER_14_202 vgnd vpwr scs8hd_decap_12
XFILLER_1_150 vgnd vpwr scs8hd_decap_4
XFILLER_20_249 vgnd vpwr scs8hd_decap_12
XFILLER_18_27 vgnd vpwr scs8hd_decap_4
Xmux_top_ipin_0.mux_l1_in_1_.TGATE_1_.scs8hd_ebufn_2 mux_top_ipin_0.INVTX1_4_.scs8hd_inv_1/Y
+ mem_top_ipin_0.LATCH_1_.latch/Q mux_top_ipin_0.mux_l1_in_1_.TGATE_1_.scs8hd_ebufn_2/Z
+ vgnd vpwr scs8hd_ebufn_2
XFILLER_11_227 vgnd vpwr scs8hd_decap_12
XANTENNA_mux_bottom_ipin_2.INVTX1_0_.scs8hd_inv_1_A chanx_left_in[1] vgnd vpwr scs8hd_diode_2
X_098_ chanx_right_in[8] chanx_left_out[8] vgnd vpwr scs8hd_buf_2
Xmux_top_ipin_2.INVTX1_1_.scs8hd_inv_1 chanx_right_in[5] mux_top_ipin_2.INVTX1_1_.scs8hd_inv_1/Y
+ vgnd vpwr scs8hd_inv_1
XANTENNA_mem_top_ipin_0.LATCH_4_.latch_SLEEPB _070_/Y vgnd vpwr scs8hd_diode_2
Xmux_bottom_ipin_1.tap_buf4_0_.scs8hd_inv_1 mux_bottom_ipin_1.tap_buf4_0_.scs8hd_inv_1/A
+ top_grid_pin_6_ vgnd vpwr scs8hd_inv_1
XFILLER_3_201 vpwr vgnd scs8hd_fill_2
XFILLER_3_256 vpwr vgnd scs8hd_fill_2
XFILLER_10_50 vgnd vpwr scs8hd_decap_12
XFILLER_15_330 vgnd vpwr scs8hd_decap_12
XFILLER_19_135 vgnd vpwr scs8hd_decap_12
XFILLER_15_39 vgnd vpwr scs8hd_decap_12
XFILLER_18_190 vgnd vpwr scs8hd_decap_8
XANTENNA__083__D _069_/X vgnd vpwr scs8hd_diode_2
XFILLER_0_204 vgnd vpwr scs8hd_fill_1
XPHY_100 vgnd vpwr scs8hd_tapvpwrvgnd_1
XFILLER_16_105 vgnd vpwr scs8hd_decap_12
XPHY_177 vgnd vpwr scs8hd_tapvpwrvgnd_1
XPHY_188 vgnd vpwr scs8hd_tapvpwrvgnd_1
XFILLER_8_337 vgnd vpwr scs8hd_decap_12
XPHY_111 vgnd vpwr scs8hd_tapvpwrvgnd_1
XPHY_122 vgnd vpwr scs8hd_tapvpwrvgnd_1
XFILLER_12_300 vgnd vpwr scs8hd_decap_12
XFILLER_12_377 vgnd vpwr scs8hd_decap_12
XPHY_133 vgnd vpwr scs8hd_tapvpwrvgnd_1
XPHY_144 vgnd vpwr scs8hd_tapvpwrvgnd_1
XPHY_155 vgnd vpwr scs8hd_tapvpwrvgnd_1
XPHY_166 vgnd vpwr scs8hd_tapvpwrvgnd_1
XFILLER_11_7 vgnd vpwr scs8hd_decap_12
XPHY_2 vgnd vpwr scs8hd_decap_3
XFILLER_15_171 vgnd vpwr scs8hd_decap_12
XFILLER_7_62 vpwr vgnd scs8hd_fill_2
XFILLER_7_84 vpwr vgnd scs8hd_fill_2
XFILLER_7_381 vgnd vpwr scs8hd_decap_12
XANTENNA__078__D _073_/C vgnd vpwr scs8hd_diode_2
XFILLER_5_318 vgnd vpwr scs8hd_decap_12
XFILLER_17_403 vgnd vpwr scs8hd_decap_4
XFILLER_16_93 vgnd vpwr scs8hd_decap_12
XFILLER_8_101 vgnd vpwr scs8hd_decap_4
XFILLER_8_145 vgnd vpwr scs8hd_decap_8
XFILLER_4_373 vgnd vpwr scs8hd_decap_12
Xmux_top_ipin_2.mux_l1_in_0_.TGATE_0_.scs8hd_ebufn_2 mux_top_ipin_2.INVTX1_0_.scs8hd_inv_1/Y
+ _091_/A mux_top_ipin_2.mux_l1_in_0_.TGATE_0_.scs8hd_ebufn_2/Z vgnd vpwr scs8hd_ebufn_2
XANTENNA_mem_bottom_ipin_2.LATCH_1_.latch_SLEEPB _062_/Y vgnd vpwr scs8hd_diode_2
XFILLER_14_406 vgnd vpwr scs8hd_fill_1
XFILLER_1_365 vgnd vpwr scs8hd_fill_1
XFILLER_17_200 vgnd vpwr scs8hd_decap_12
XANTENNA_mux_bottom_ipin_0.mux_l1_in_0_.TGATE_0_.scs8hd_ebufn_2_TEB mem_bottom_ipin_0.LATCH_0_.latch/Q
+ vgnd vpwr scs8hd_diode_2
XFILLER_3_9 vpwr vgnd scs8hd_fill_2
Xmem_top_ipin_0.LATCH_5_.latch data_in mem_top_ipin_0.LATCH_5_.latch/Q _068_/Y vgnd
+ vpwr scs8hd_lpflow_inputisolatch_1
XFILLER_9_251 vgnd vpwr scs8hd_decap_4
XFILLER_11_239 vgnd vpwr scs8hd_decap_4
XFILLER_19_306 vgnd vpwr scs8hd_decap_12
XFILLER_6_210 vpwr vgnd scs8hd_fill_2
XFILLER_10_250 vgnd vpwr scs8hd_decap_4
XFILLER_6_232 vgnd vpwr scs8hd_decap_8
X_097_ _097_/HI _097_/LO vgnd vpwr scs8hd_conb_1
XFILLER_1_97 vpwr vgnd scs8hd_fill_2
XFILLER_18_361 vgnd vpwr scs8hd_decap_12
XANTENNA_mux_bottom_ipin_2.mux_l2_in_0_.TGATE_2_.scs8hd_ebufn_2_A _094_/HI vgnd vpwr
+ scs8hd_diode_2
XANTENNA_mem_bottom_ipin_0.LATCH_2_.latch_SLEEPB _050_/Y vgnd vpwr scs8hd_diode_2
XFILLER_3_235 vgnd vpwr scs8hd_decap_6
XFILLER_10_62 vgnd vpwr scs8hd_decap_4
XFILLER_10_73 vpwr vgnd scs8hd_fill_2
XFILLER_3_279 vpwr vgnd scs8hd_fill_2
XFILLER_10_84 vgnd vpwr scs8hd_decap_8
XFILLER_19_147 vgnd vpwr scs8hd_decap_12
XFILLER_15_342 vgnd vpwr scs8hd_decap_12
XFILLER_15_375 vgnd vpwr scs8hd_decap_12
Xmux_bottom_ipin_1.INVTX1_1_.scs8hd_inv_1 chanx_right_in[1] mux_bottom_ipin_1.INVTX1_1_.scs8hd_inv_1/Y
+ vgnd vpwr scs8hd_inv_1
Xmux_top_ipin_0.INVTX1_1_.scs8hd_inv_1 chanx_right_in[2] mux_top_ipin_0.INVTX1_1_.scs8hd_inv_1/Y
+ vgnd vpwr scs8hd_inv_1
XFILLER_0_249 vgnd vpwr scs8hd_decap_8
XFILLER_0_238 vgnd vpwr scs8hd_decap_8
XFILLER_0_227 vpwr vgnd scs8hd_fill_2
XPHY_101 vgnd vpwr scs8hd_tapvpwrvgnd_1
XPHY_112 vgnd vpwr scs8hd_tapvpwrvgnd_1
XPHY_123 vgnd vpwr scs8hd_tapvpwrvgnd_1
XFILLER_12_312 vgnd vpwr scs8hd_decap_12
XPHY_134 vgnd vpwr scs8hd_tapvpwrvgnd_1
XFILLER_16_117 vgnd vpwr scs8hd_decap_12
XPHY_189 vgnd vpwr scs8hd_tapvpwrvgnd_1
Xmem_bottom_ipin_0.LATCH_5_.latch data_in mem_bottom_ipin_0.LATCH_5_.latch/Q _044_/Y
+ vgnd vpwr scs8hd_lpflow_inputisolatch_1
XFILLER_8_349 vgnd vpwr scs8hd_decap_12
XFILLER_12_389 vgnd vpwr scs8hd_decap_8
XPHY_145 vgnd vpwr scs8hd_tapvpwrvgnd_1
XPHY_156 vgnd vpwr scs8hd_tapvpwrvgnd_1
XPHY_167 vgnd vpwr scs8hd_tapvpwrvgnd_1
XPHY_178 vgnd vpwr scs8hd_tapvpwrvgnd_1
XANTENNA_mem_bottom_ipin_0.LATCH_1_.latch_D data_in vgnd vpwr scs8hd_diode_2
XPHY_3 vgnd vpwr scs8hd_decap_3
XFILLER_7_52 vpwr vgnd scs8hd_fill_2
XFILLER_7_393 vgnd vpwr scs8hd_decap_12
Xmux_bottom_ipin_2.INVTX1_5_.scs8hd_inv_1 chanx_right_in[6] mux_bottom_ipin_2.INVTX1_5_.scs8hd_inv_1/Y
+ vgnd vpwr scs8hd_inv_1
XFILLER_8_168 vgnd vpwr scs8hd_decap_8
XFILLER_4_385 vgnd vpwr scs8hd_decap_12
Xmem_top_ipin_1.LATCH_1_.latch data_in _088_/A _082_/Y vgnd vpwr scs8hd_lpflow_inputisolatch_1
XFILLER_5_138 vgnd vpwr scs8hd_decap_3
XFILLER_1_322 vgnd vpwr scs8hd_fill_1
XFILLER_17_212 vgnd vpwr scs8hd_decap_12
XFILLER_17_245 vgnd vpwr scs8hd_decap_12
XANTENNA_mux_top_ipin_0.mux_l1_in_0_.TGATE_0_.scs8hd_ebufn_2_A mux_top_ipin_0.INVTX1_0_.scs8hd_inv_1/Y
+ vgnd vpwr scs8hd_diode_2
XFILLER_4_193 vpwr vgnd scs8hd_fill_2
XFILLER_4_64 vpwr vgnd scs8hd_fill_2
XFILLER_13_51 vgnd vpwr scs8hd_decap_8
XFILLER_14_215 vgnd vpwr scs8hd_decap_12
XFILLER_13_62 vgnd vpwr scs8hd_decap_12
XANTENNA__100__A chanx_right_in[6] vgnd vpwr scs8hd_diode_2
XFILLER_9_241 vgnd vpwr scs8hd_decap_3
XFILLER_13_281 vgnd vpwr scs8hd_decap_12
XFILLER_20_218 vgnd vpwr scs8hd_decap_12
XFILLER_19_318 vgnd vpwr scs8hd_decap_12
XFILLER_10_262 vpwr vgnd scs8hd_fill_2
XFILLER_6_266 vgnd vpwr scs8hd_decap_6
X_096_ _096_/HI _096_/LO vgnd vpwr scs8hd_conb_1
XFILLER_1_32 vpwr vgnd scs8hd_fill_2
XFILLER_18_373 vgnd vpwr scs8hd_decap_12
Xmem_bottom_ipin_1.LATCH_1_.latch data_in _086_/A _078_/Y vgnd vpwr scs8hd_lpflow_inputisolatch_1
XFILLER_10_96 vgnd vpwr scs8hd_decap_12
Xmux_top_ipin_1.mux_l1_in_0_.TGATE_0_.scs8hd_ebufn_2 mux_top_ipin_1.INVTX1_0_.scs8hd_inv_1/Y
+ _089_/A mux_top_ipin_1.mux_l2_in_0_.TGATE_0_.scs8hd_ebufn_2/A vgnd vpwr scs8hd_ebufn_2
XFILLER_19_159 vgnd vpwr scs8hd_decap_12
XFILLER_15_354 vgnd vpwr scs8hd_decap_12
XFILLER_15_387 vgnd vpwr scs8hd_decap_12
X_079_ address[5] _075_/X _077_/X _069_/X _079_/Y vgnd vpwr scs8hd_nor4_4
XPHY_102 vgnd vpwr scs8hd_tapvpwrvgnd_1
XPHY_113 vgnd vpwr scs8hd_tapvpwrvgnd_1
XPHY_124 vgnd vpwr scs8hd_tapvpwrvgnd_1
XFILLER_12_324 vgnd vpwr scs8hd_decap_12
XPHY_135 vgnd vpwr scs8hd_tapvpwrvgnd_1
XPHY_146 vgnd vpwr scs8hd_tapvpwrvgnd_1
XFILLER_16_129 vgnd vpwr scs8hd_decap_12
XPHY_157 vgnd vpwr scs8hd_tapvpwrvgnd_1
XPHY_168 vgnd vpwr scs8hd_tapvpwrvgnd_1
XPHY_179 vgnd vpwr scs8hd_tapvpwrvgnd_1
XPHY_4 vgnd vpwr scs8hd_decap_3
XFILLER_15_184 vgnd vpwr scs8hd_decap_12
XFILLER_7_361 vgnd vpwr scs8hd_decap_3
XFILLER_8_125 vpwr vgnd scs8hd_fill_2
XFILLER_12_121 vgnd vpwr scs8hd_decap_12
XFILLER_12_154 vgnd vpwr scs8hd_decap_12
XANTENNA_mux_bottom_ipin_2.mux_l1_in_1_.TGATE_2_.scs8hd_ebufn_2_A mux_bottom_ipin_2.INVTX1_5_.scs8hd_inv_1/Y
+ vgnd vpwr scs8hd_diode_2
XANTENNA__103__A chanx_right_in[3] vgnd vpwr scs8hd_diode_2
Xmux_bottom_ipin_0.INVTX1_5_.scs8hd_inv_1 chanx_right_in[8] mux_bottom_ipin_0.INVTX1_5_.scs8hd_inv_1/Y
+ vgnd vpwr scs8hd_inv_1
XANTENNA_mux_top_ipin_0.mux_l2_in_0_.TGATE_0_.scs8hd_ebufn_2_TEB mem_top_ipin_0.LATCH_3_.latch/Q
+ vgnd vpwr scs8hd_diode_2
XFILLER_5_117 vgnd vpwr scs8hd_decap_3
XFILLER_1_367 vgnd vpwr scs8hd_decap_12
XFILLER_1_345 vpwr vgnd scs8hd_fill_2
XFILLER_1_334 vgnd vpwr scs8hd_decap_3
XFILLER_17_224 vgnd vpwr scs8hd_decap_12
XFILLER_17_257 vgnd vpwr scs8hd_decap_12
XFILLER_4_32 vpwr vgnd scs8hd_fill_2
Xmux_top_ipin_2.mux_l2_in_0_.TGATE_1_.scs8hd_ebufn_2 _097_/HI _090_/Y mux_top_ipin_2.tap_buf4_0_.scs8hd_inv_1/A
+ vgnd vpwr scs8hd_ebufn_2
XFILLER_14_227 vgnd vpwr scs8hd_decap_12
XFILLER_13_74 vgnd vpwr scs8hd_decap_12
XFILLER_1_175 vpwr vgnd scs8hd_fill_2
XFILLER_13_293 vgnd vpwr scs8hd_decap_12
X_095_ _095_/HI _095_/LO vgnd vpwr scs8hd_conb_1
XFILLER_10_274 vgnd vpwr scs8hd_fill_1
XFILLER_6_289 vgnd vpwr scs8hd_decap_12
XFILLER_1_55 vpwr vgnd scs8hd_fill_2
XFILLER_18_385 vgnd vpwr scs8hd_decap_12
XANTENNA__111__A chanx_left_in[4] vgnd vpwr scs8hd_diode_2
XFILLER_19_62 vgnd vpwr scs8hd_decap_12
XFILLER_15_399 vgnd vpwr scs8hd_decap_8
X_078_ address[5] _075_/X _077_/X _073_/C _078_/Y vgnd vpwr scs8hd_nor4_4
XANTENNA__106__A chanx_right_in[0] vgnd vpwr scs8hd_diode_2
XFILLER_18_3 vgnd vpwr scs8hd_decap_12
XPHY_103 vgnd vpwr scs8hd_tapvpwrvgnd_1
XPHY_114 vgnd vpwr scs8hd_tapvpwrvgnd_1
XPHY_125 vgnd vpwr scs8hd_tapvpwrvgnd_1
XPHY_136 vgnd vpwr scs8hd_tapvpwrvgnd_1
XPHY_147 vgnd vpwr scs8hd_tapvpwrvgnd_1
XPHY_158 vgnd vpwr scs8hd_tapvpwrvgnd_1
XPHY_169 vgnd vpwr scs8hd_tapvpwrvgnd_1
XPHY_5 vgnd vpwr scs8hd_decap_3
XFILLER_15_196 vgnd vpwr scs8hd_decap_12
XANTENNA_mem_top_ipin_2.LATCH_0_.latch_SLEEPB _085_/Y vgnd vpwr scs8hd_diode_2
XFILLER_12_133 vgnd vpwr scs8hd_decap_12
XFILLER_12_166 vgnd vpwr scs8hd_decap_12
XFILLER_4_321 vgnd vpwr scs8hd_decap_12
XFILLER_4_398 vgnd vpwr scs8hd_decap_8
XANTENNA_mem_top_ipin_0.LATCH_2_.latch_D data_in vgnd vpwr scs8hd_diode_2
XANTENNA_mem_top_ipin_1.LATCH_0_.latch_D data_in vgnd vpwr scs8hd_diode_2
XFILLER_1_379 vgnd vpwr scs8hd_decap_12
XFILLER_17_236 vgnd vpwr scs8hd_decap_8
XFILLER_17_269 vgnd vpwr scs8hd_decap_12
XFILLER_4_55 vpwr vgnd scs8hd_fill_2
XFILLER_4_88 vpwr vgnd scs8hd_fill_2
XANTENNA_mux_top_ipin_1.mux_l1_in_0_.TGATE_0_.scs8hd_ebufn_2_A mux_top_ipin_1.INVTX1_0_.scs8hd_inv_1/Y
+ vgnd vpwr scs8hd_diode_2
XANTENNA__114__A chanx_left_in[1] vgnd vpwr scs8hd_diode_2
XANTENNA_mux_top_ipin_1.INVTX1_1_.scs8hd_inv_1_A chanx_right_in[4] vgnd vpwr scs8hd_diode_2
Xmux_top_ipin_0.mux_l1_in_0_.TGATE_0_.scs8hd_ebufn_2 mux_top_ipin_0.INVTX1_0_.scs8hd_inv_1/Y
+ mem_top_ipin_0.LATCH_0_.latch/Q mux_top_ipin_0.mux_l1_in_0_.TGATE_2_.scs8hd_ebufn_2/Z
+ vgnd vpwr scs8hd_ebufn_2
XFILLER_14_239 vgnd vpwr scs8hd_decap_12
XFILLER_13_86 vgnd vpwr scs8hd_decap_12
XANTENNA__109__A chanx_left_in[6] vgnd vpwr scs8hd_diode_2
XFILLER_6_202 vgnd vpwr scs8hd_fill_1
X_094_ _094_/HI _094_/LO vgnd vpwr scs8hd_conb_1
XFILLER_1_12 vpwr vgnd scs8hd_fill_2
XANTENNA_mem_top_ipin_0.LATCH_1_.latch_SLEEPB _073_/Y vgnd vpwr scs8hd_diode_2
XFILLER_1_67 vpwr vgnd scs8hd_fill_2
XFILLER_3_205 vgnd vpwr scs8hd_decap_3
XFILLER_3_227 vpwr vgnd scs8hd_fill_2