* NGSPICE file created from cbx_1__3_.ext - technology: EFS8A

* Black-box entry subcircuit for scs8hd_decap_8 abstract view
.subckt scs8hd_decap_8 vgnd vpwr
.ends

* Black-box entry subcircuit for scs8hd_fill_2 abstract view
.subckt scs8hd_fill_2 vpwr vgnd
.ends

* Black-box entry subcircuit for scs8hd_fill_1 abstract view
.subckt scs8hd_fill_1 vgnd vpwr
.ends

* Black-box entry subcircuit for scs8hd_decap_3 abstract view
.subckt scs8hd_decap_3 vgnd vpwr
.ends

* Black-box entry subcircuit for scs8hd_diode_2 abstract view
.subckt scs8hd_diode_2 DIODE vgnd vpwr
.ends

* Black-box entry subcircuit for scs8hd_lpflow_inputisolatch_1 abstract view
.subckt scs8hd_lpflow_inputisolatch_1 D Q SLEEPB vgnd vpwr
.ends

* Black-box entry subcircuit for scs8hd_decap_12 abstract view
.subckt scs8hd_decap_12 vgnd vpwr
.ends

* Black-box entry subcircuit for scs8hd_decap_4 abstract view
.subckt scs8hd_decap_4 vgnd vpwr
.ends

* Black-box entry subcircuit for scs8hd_buf_2 abstract view
.subckt scs8hd_buf_2 A X vgnd vpwr
.ends

* Black-box entry subcircuit for scs8hd_or4_4 abstract view
.subckt scs8hd_or4_4 A B C D X vgnd vpwr
.ends

* Black-box entry subcircuit for scs8hd_buf_1 abstract view
.subckt scs8hd_buf_1 A X vgnd vpwr
.ends

* Black-box entry subcircuit for scs8hd_decap_6 abstract view
.subckt scs8hd_decap_6 vgnd vpwr
.ends

* Black-box entry subcircuit for scs8hd_ebufn_2 abstract view
.subckt scs8hd_ebufn_2 A TEB Z vgnd vpwr
.ends

* Black-box entry subcircuit for scs8hd_inv_1 abstract view
.subckt scs8hd_inv_1 A Y vgnd vpwr
.ends

* Black-box entry subcircuit for scs8hd_tapvpwrvgnd_1 abstract view
.subckt scs8hd_tapvpwrvgnd_1 vgnd vpwr
.ends

* Black-box entry subcircuit for scs8hd_nor2_4 abstract view
.subckt scs8hd_nor2_4 A B Y vgnd vpwr
.ends

* Black-box entry subcircuit for scs8hd_or2_4 abstract view
.subckt scs8hd_or2_4 A B X vgnd vpwr
.ends

* Black-box entry subcircuit for scs8hd_conb_1 abstract view
.subckt scs8hd_conb_1 HI LO vgnd vpwr
.ends

* Black-box entry subcircuit for scs8hd_or3_4 abstract view
.subckt scs8hd_or3_4 A B C X vgnd vpwr
.ends

* Black-box entry subcircuit for scs8hd_nand2_4 abstract view
.subckt scs8hd_nand2_4 A B Y vgnd vpwr
.ends

* Black-box entry subcircuit for scs8hd_nor3_4 abstract view
.subckt scs8hd_nor3_4 A B C Y vgnd vpwr
.ends

* Black-box entry subcircuit for scs8hd_inv_8 abstract view
.subckt scs8hd_inv_8 A Y vgnd vpwr
.ends

.subckt cbx_1__3_ address[0] address[1] address[2] address[3] address[4] address[5]
+ address[6] bottom_grid_pin_0_ bottom_grid_pin_4_ bottom_grid_pin_8_ chanx_left_in[0]
+ chanx_left_in[1] chanx_left_in[2] chanx_left_in[3] chanx_left_in[4] chanx_left_in[5]
+ chanx_left_in[6] chanx_left_in[7] chanx_left_in[8] chanx_left_out[0] chanx_left_out[1]
+ chanx_left_out[2] chanx_left_out[3] chanx_left_out[4] chanx_left_out[5] chanx_left_out[6]
+ chanx_left_out[7] chanx_left_out[8] chanx_right_in[0] chanx_right_in[1] chanx_right_in[2]
+ chanx_right_in[3] chanx_right_in[4] chanx_right_in[5] chanx_right_in[6] chanx_right_in[7]
+ chanx_right_in[8] chanx_right_out[0] chanx_right_out[1] chanx_right_out[2] chanx_right_out[3]
+ chanx_right_out[4] chanx_right_out[5] chanx_right_out[6] chanx_right_out[7] chanx_right_out[8]
+ data_in enable top_grid_pin_0_ top_grid_pin_10_ top_grid_pin_12_ top_grid_pin_14_
+ top_grid_pin_2_ top_grid_pin_4_ top_grid_pin_6_ top_grid_pin_8_ vpwr vgnd
XFILLER_10_328 vgnd vpwr scs8hd_decap_8
XFILLER_7_7 vpwr vgnd scs8hd_fill_2
XFILLER_18_406 vgnd vpwr scs8hd_fill_1
XFILLER_13_199 vgnd vpwr scs8hd_decap_3
XFILLER_13_177 vpwr vgnd scs8hd_fill_2
XANTENNA__113__B _149_/A vgnd vpwr scs8hd_diode_2
XANTENNA_mux_bottom_ipin_6.mux_l1_in_0_.TGATE_1_.scs8hd_ebufn_2_TEB mem_bottom_ipin_6.LATCH_1_.latch/Q
+ vgnd vpwr scs8hd_diode_2
Xmem_bottom_ipin_2.LATCH_1_.latch data_in mem_bottom_ipin_2.LATCH_1_.latch/Q _179_/Y
+ vgnd vpwr scs8hd_lpflow_inputisolatch_1
XFILLER_10_158 vpwr vgnd scs8hd_fill_2
XFILLER_10_169 vpwr vgnd scs8hd_fill_2
XFILLER_12_10 vpwr vgnd scs8hd_fill_2
XFILLER_2_357 vgnd vpwr scs8hd_decap_12
XFILLER_2_335 vgnd vpwr scs8hd_fill_1
XFILLER_2_313 vgnd vpwr scs8hd_decap_4
XFILLER_12_98 vgnd vpwr scs8hd_decap_3
XFILLER_18_258 vgnd vpwr scs8hd_decap_3
XANTENNA__108__B _110_/B vgnd vpwr scs8hd_diode_2
XFILLER_5_162 vpwr vgnd scs8hd_fill_2
XANTENNA__124__A _124_/A vgnd vpwr scs8hd_diode_2
Xmem_bottom_ipin_4.LATCH_4_.latch data_in mem_bottom_ipin_4.LATCH_4_.latch/Q _102_/Y
+ vgnd vpwr scs8hd_lpflow_inputisolatch_1
XANTENNA_mux_bottom_ipin_1.mux_l1_in_0_.TGATE_1_.scs8hd_ebufn_2_TEB mem_bottom_ipin_1.LATCH_1_.latch/Q
+ vgnd vpwr scs8hd_diode_2
XANTENNA__209__A chanx_left_in[0] vgnd vpwr scs8hd_diode_2
X_200_ chanx_right_in[0] chanx_left_out[0] vgnd vpwr scs8hd_buf_2
X_131_ _077_/A _077_/B _077_/C _113_/A _131_/X vgnd vpwr scs8hd_or4_4
XFILLER_2_154 vpwr vgnd scs8hd_fill_2
XANTENNA_mux_bottom_ipin_4.mux_l1_in_1_.TGATE_1_.scs8hd_ebufn_2_A mux_bottom_ipin_4.INVTX1_4_.scs8hd_inv_1/Y
+ vgnd vpwr scs8hd_diode_2
XANTENNA_mem_top_ipin_0.LATCH_3_.latch_D data_in vgnd vpwr scs8hd_diode_2
XANTENNA__119__A _107_/X vgnd vpwr scs8hd_diode_2
XANTENNA_mem_top_ipin_1.LATCH_1_.latch_D data_in vgnd vpwr scs8hd_diode_2
XFILLER_18_20 vgnd vpwr scs8hd_decap_8
XANTENNA_mux_bottom_ipin_4.mux_l1_in_1_.TGATE_1_.scs8hd_ebufn_2_TEB mem_bottom_ipin_4.LATCH_1_.latch/Q
+ vgnd vpwr scs8hd_diode_2
X_114_ _113_/X _115_/B vgnd vpwr scs8hd_buf_1
XFILLER_7_279 vpwr vgnd scs8hd_fill_2
XFILLER_11_297 vgnd vpwr scs8hd_decap_6
Xmux_bottom_ipin_3.mux_l1_in_0_.TGATE_2_.scs8hd_ebufn_2 mux_bottom_ipin_3.INVTX1_2_.scs8hd_inv_1/Y
+ mem_bottom_ipin_3.LATCH_2_.latch/Q mux_bottom_ipin_3.mux_l1_in_0_.TGATE_0_.scs8hd_ebufn_2/Z
+ vgnd vpwr scs8hd_ebufn_2
XANTENNA__121__B _077_/B vgnd vpwr scs8hd_diode_2
XANTENNA_mem_bottom_ipin_5.LATCH_0_.latch_SLEEPB _120_/Y vgnd vpwr scs8hd_diode_2
XANTENNA_mux_top_ipin_2.INVTX1_1_.scs8hd_inv_1_A chanx_right_in[1] vgnd vpwr scs8hd_diode_2
XFILLER_20_32 vgnd vpwr scs8hd_decap_12
Xmux_top_ipin_0.mux_l1_in_1_.TGATE_0_.scs8hd_ebufn_2 mux_top_ipin_0.INVTX1_3_.scs8hd_inv_1/Y
+ mem_top_ipin_0.LATCH_0_.latch/Q mux_top_ipin_0.mux_l1_in_1_.TGATE_1_.scs8hd_ebufn_2/Z
+ vgnd vpwr scs8hd_ebufn_2
XFILLER_20_87 vgnd vpwr scs8hd_decap_6
XANTENNA__116__B _115_/B vgnd vpwr scs8hd_diode_2
XANTENNA_mux_top_ipin_0.mux_l1_in_0_.TGATE_2_.scs8hd_ebufn_2_A mux_top_ipin_0.INVTX1_2_.scs8hd_inv_1/Y
+ vgnd vpwr scs8hd_diode_2
XANTENNA__132__A _131_/X vgnd vpwr scs8hd_diode_2
XFILLER_19_172 vgnd vpwr scs8hd_decap_8
Xmux_bottom_ipin_0.mux_l2_in_0_.TGATE_2_.scs8hd_ebufn_2 _181_/HI mem_bottom_ipin_0.LATCH_5_.latch/Q
+ mux_bottom_ipin_0.tap_buf4_0_.scs8hd_inv_1/A vgnd vpwr scs8hd_ebufn_2
XFILLER_13_3 vgnd vpwr scs8hd_decap_3
XANTENNA_mux_bottom_ipin_6.INVTX1_0_.scs8hd_inv_1_A chanx_left_in[1] vgnd vpwr scs8hd_diode_2
Xmux_bottom_ipin_0.INVTX1_3_.scs8hd_inv_1 chanx_right_in[4] mux_bottom_ipin_0.INVTX1_3_.scs8hd_inv_1/Y
+ vgnd vpwr scs8hd_inv_1
XFILLER_1_208 vgnd vpwr scs8hd_decap_12
XFILLER_13_315 vpwr vgnd scs8hd_fill_2
XFILLER_15_87 vpwr vgnd scs8hd_fill_2
XFILLER_13_359 vgnd vpwr scs8hd_fill_1
XFILLER_0_230 vgnd vpwr scs8hd_decap_12
XPHY_170 vgnd vpwr scs8hd_tapvpwrvgnd_1
XANTENNA__127__A _145_/A vgnd vpwr scs8hd_diode_2
XFILLER_16_142 vgnd vpwr scs8hd_decap_8
XPHY_181 vgnd vpwr scs8hd_tapvpwrvgnd_1
Xmux_bottom_ipin_5.tap_buf4_0_.scs8hd_inv_1 mux_bottom_ipin_5.tap_buf4_0_.scs8hd_inv_1/A
+ top_grid_pin_10_ vgnd vpwr scs8hd_inv_1
XFILLER_8_396 vgnd vpwr scs8hd_fill_1
XANTENNA_mux_bottom_ipin_4.tap_buf4_0_.scs8hd_inv_1_A mux_bottom_ipin_4.tap_buf4_0_.scs8hd_inv_1/A
+ vgnd vpwr scs8hd_diode_2
XANTENNA_mux_bottom_ipin_3.mux_l1_in_0_.TGATE_0_.scs8hd_ebufn_2_TEB mem_bottom_ipin_3.LATCH_0_.latch/Q
+ vgnd vpwr scs8hd_diode_2
XANTENNA_mux_bottom_ipin_5.mux_l2_in_0_.TGATE_1_.scs8hd_ebufn_2_A mux_bottom_ipin_5.mux_l1_in_1_.TGATE_1_.scs8hd_ebufn_2/Z
+ vgnd vpwr scs8hd_diode_2
Xmux_bottom_ipin_6.INVTX1_0_.scs8hd_inv_1 chanx_left_in[1] mux_bottom_ipin_6.INVTX1_0_.scs8hd_inv_1/Y
+ vgnd vpwr scs8hd_inv_1
Xmem_bottom_ipin_5.LATCH_0_.latch data_in mem_bottom_ipin_5.LATCH_0_.latch/Q _120_/Y
+ vgnd vpwr scs8hd_lpflow_inputisolatch_1
XFILLER_13_123 vpwr vgnd scs8hd_fill_2
XFILLER_9_138 vpwr vgnd scs8hd_fill_2
XANTENNA_mux_top_ipin_0.mux_l2_in_0_.TGATE_0_.scs8hd_ebufn_2_A mux_top_ipin_0.mux_l1_in_0_.TGATE_0_.scs8hd_ebufn_2/Z
+ vgnd vpwr scs8hd_diode_2
XFILLER_3_57 vpwr vgnd scs8hd_fill_2
XANTENNA_mux_bottom_ipin_1.mux_l1_in_0_.TGATE_1_.scs8hd_ebufn_2_A mux_bottom_ipin_1.INVTX1_1_.scs8hd_inv_1/Y
+ vgnd vpwr scs8hd_diode_2
XFILLER_2_369 vgnd vpwr scs8hd_decap_12
Xmem_bottom_ipin_7.LATCH_3_.latch data_in mem_bottom_ipin_7.LATCH_3_.latch/Q _135_/Y
+ vgnd vpwr scs8hd_lpflow_inputisolatch_1
XANTENNA_mux_bottom_ipin_6.mux_l1_in_1_.TGATE_0_.scs8hd_ebufn_2_TEB mem_bottom_ipin_6.LATCH_0_.latch/Q
+ vgnd vpwr scs8hd_diode_2
XFILLER_18_215 vgnd vpwr scs8hd_fill_1
XANTENNA_mem_bottom_ipin_3.LATCH_1_.latch_SLEEPB _092_/Y vgnd vpwr scs8hd_diode_2
Xmux_bottom_ipin_7.INVTX1_4_.scs8hd_inv_1 chanx_left_in[7] mux_bottom_ipin_7.INVTX1_4_.scs8hd_inv_1/Y
+ vgnd vpwr scs8hd_inv_1
XFILLER_1_391 vgnd vpwr scs8hd_decap_12
XANTENNA__140__A _139_/X vgnd vpwr scs8hd_diode_2
Xmux_top_ipin_0.tap_buf4_0_.scs8hd_inv_1 mux_top_ipin_0.tap_buf4_0_.scs8hd_inv_1/A
+ bottom_grid_pin_0_ vgnd vpwr scs8hd_inv_1
X_130_ _148_/A _125_/B _130_/Y vgnd vpwr scs8hd_nor2_4
XANTENNA__119__B _115_/B vgnd vpwr scs8hd_diode_2
XANTENNA__135__A _145_/A vgnd vpwr scs8hd_diode_2
XFILLER_9_23 vpwr vgnd scs8hd_fill_2
XFILLER_9_67 vpwr vgnd scs8hd_fill_2
XANTENNA_mux_bottom_ipin_1.mux_l1_in_1_.TGATE_0_.scs8hd_ebufn_2_TEB mem_bottom_ipin_1.LATCH_0_.latch/Q
+ vgnd vpwr scs8hd_diode_2
XFILLER_20_221 vgnd vpwr scs8hd_decap_12
XFILLER_7_236 vpwr vgnd scs8hd_fill_2
X_113_ _113_/A _149_/A _113_/X vgnd vpwr scs8hd_or2_4
XFILLER_11_254 vpwr vgnd scs8hd_fill_2
XFILLER_19_310 vpwr vgnd scs8hd_fill_2
XFILLER_15_7 vpwr vgnd scs8hd_fill_2
XANTENNA__121__C address[3] vgnd vpwr scs8hd_diode_2
XFILLER_6_280 vpwr vgnd scs8hd_fill_2
XFILLER_20_44 vgnd vpwr scs8hd_decap_12
XFILLER_4_206 vgnd vpwr scs8hd_decap_8
XFILLER_16_324 vgnd vpwr scs8hd_decap_12
XFILLER_6_35 vpwr vgnd scs8hd_fill_2
XFILLER_3_272 vpwr vgnd scs8hd_fill_2
XANTENNA_mem_bottom_ipin_1.LATCH_2_.latch_SLEEPB _170_/Y vgnd vpwr scs8hd_diode_2
XFILLER_19_184 vgnd vpwr scs8hd_decap_12
XANTENNA_mem_bottom_ipin_0.LATCH_5_.latch_D data_in vgnd vpwr scs8hd_diode_2
XFILLER_15_66 vgnd vpwr scs8hd_decap_4
XFILLER_15_11 vpwr vgnd scs8hd_fill_2
XFILLER_0_242 vgnd vpwr scs8hd_decap_6
XANTENNA_mem_bottom_ipin_1.LATCH_3_.latch_D data_in vgnd vpwr scs8hd_diode_2
XPHY_182 vgnd vpwr scs8hd_tapvpwrvgnd_1
XPHY_171 vgnd vpwr scs8hd_tapvpwrvgnd_1
XANTENNA__127__B _125_/B vgnd vpwr scs8hd_diode_2
XPHY_160 vgnd vpwr scs8hd_tapvpwrvgnd_1
XFILLER_16_176 vgnd vpwr scs8hd_decap_8
XFILLER_16_154 vpwr vgnd scs8hd_fill_2
XANTENNA__143__A _125_/A vgnd vpwr scs8hd_diode_2
XANTENNA_mem_bottom_ipin_2.LATCH_1_.latch_D data_in vgnd vpwr scs8hd_diode_2
Xmem_top_ipin_0.LATCH_4_.latch data_in mem_top_ipin_0.LATCH_4_.latch/Q _144_/Y vgnd
+ vpwr scs8hd_lpflow_inputisolatch_1
XFILLER_13_157 vpwr vgnd scs8hd_fill_2
XFILLER_5_301 vpwr vgnd scs8hd_fill_2
XFILLER_5_323 vpwr vgnd scs8hd_fill_2
XFILLER_5_345 vgnd vpwr scs8hd_fill_1
XFILLER_5_389 vgnd vpwr scs8hd_decap_12
XANTENNA__138__A _148_/A vgnd vpwr scs8hd_diode_2
XFILLER_10_105 vpwr vgnd scs8hd_fill_2
XFILLER_10_127 vgnd vpwr scs8hd_fill_1
XFILLER_10_149 vgnd vpwr scs8hd_decap_4
XFILLER_12_23 vgnd vpwr scs8hd_decap_6
XFILLER_12_45 vgnd vpwr scs8hd_decap_4
XFILLER_12_78 vpwr vgnd scs8hd_fill_2
XFILLER_2_337 vpwr vgnd scs8hd_fill_2
Xmux_bottom_ipin_2.mux_l1_in_0_.TGATE_2_.scs8hd_ebufn_2 mux_bottom_ipin_2.INVTX1_2_.scs8hd_inv_1/Y
+ mem_bottom_ipin_2.LATCH_2_.latch/Q mux_bottom_ipin_2.mux_l1_in_0_.TGATE_1_.scs8hd_ebufn_2/Z
+ vgnd vpwr scs8hd_ebufn_2
XANTENNA_mux_top_ipin_1.mux_l2_in_0_.TGATE_1_.scs8hd_ebufn_2_TEB _153_/Y vgnd vpwr
+ scs8hd_diode_2
XFILLER_5_120 vpwr vgnd scs8hd_fill_2
XFILLER_5_131 vpwr vgnd scs8hd_fill_2
XFILLER_5_175 vpwr vgnd scs8hd_fill_2
Xmux_bottom_ipin_4.INVTX1_0_.scs8hd_inv_1 chanx_left_in[3] mux_bottom_ipin_4.INVTX1_0_.scs8hd_inv_1/Y
+ vgnd vpwr scs8hd_inv_1
XFILLER_17_293 vpwr vgnd scs8hd_fill_2
XFILLER_17_282 vpwr vgnd scs8hd_fill_2
XFILLER_15_208 vpwr vgnd scs8hd_fill_2
XANTENNA_mem_bottom_ipin_5.LATCH_5_.latch_D data_in vgnd vpwr scs8hd_diode_2
XANTENNA_mem_bottom_ipin_6.LATCH_3_.latch_D data_in vgnd vpwr scs8hd_diode_2
XFILLER_0_15 vgnd vpwr scs8hd_decap_12
XFILLER_14_252 vgnd vpwr scs8hd_decap_3
XANTENNA_mem_bottom_ipin_7.LATCH_1_.latch_D data_in vgnd vpwr scs8hd_diode_2
XANTENNA_mux_bottom_ipin_5.mux_l1_in_1_.TGATE_1_.scs8hd_ebufn_2_A mux_bottom_ipin_5.INVTX1_4_.scs8hd_inv_1/Y
+ vgnd vpwr scs8hd_diode_2
X_189_ _189_/HI _189_/LO vgnd vpwr scs8hd_conb_1
XFILLER_14_285 vpwr vgnd scs8hd_fill_2
XANTENNA__135__B _134_/B vgnd vpwr scs8hd_diode_2
XFILLER_9_46 vpwr vgnd scs8hd_fill_2
XFILLER_9_57 vpwr vgnd scs8hd_fill_2
Xmux_bottom_ipin_5.INVTX1_4_.scs8hd_inv_1 chanx_left_in[5] mux_bottom_ipin_5.INVTX1_4_.scs8hd_inv_1/Y
+ vgnd vpwr scs8hd_inv_1
XANTENNA__151__A _173_/B vgnd vpwr scs8hd_diode_2
XFILLER_20_233 vgnd vpwr scs8hd_decap_12
Xmem_bottom_ipin_0.LATCH_4_.latch data_in mem_bottom_ipin_0.LATCH_4_.latch/Q _160_/Y
+ vgnd vpwr scs8hd_lpflow_inputisolatch_1
XANTENNA_mux_top_ipin_0.mux_l1_in_1_.TGATE_0_.scs8hd_ebufn_2_A mux_top_ipin_0.INVTX1_3_.scs8hd_inv_1/Y
+ vgnd vpwr scs8hd_diode_2
X_112_ _111_/X _149_/A vgnd vpwr scs8hd_buf_1
XFILLER_11_222 vpwr vgnd scs8hd_fill_2
XFILLER_19_377 vpwr vgnd scs8hd_fill_2
XANTENNA__146__A _162_/A vgnd vpwr scs8hd_diode_2
XFILLER_1_91 vgnd vpwr scs8hd_fill_1
XFILLER_20_56 vgnd vpwr scs8hd_decap_6
XFILLER_4_229 vpwr vgnd scs8hd_fill_2
XFILLER_16_314 vgnd vpwr scs8hd_fill_1
XFILLER_6_25 vpwr vgnd scs8hd_fill_2
XFILLER_19_196 vgnd vpwr scs8hd_decap_6
Xmem_top_ipin_1.LATCH_0_.latch data_in _154_/A _150_/Y vgnd vpwr scs8hd_lpflow_inputisolatch_1
XFILLER_15_391 vgnd vpwr scs8hd_decap_4
XFILLER_15_380 vgnd vpwr scs8hd_decap_4
XANTENNA_mux_bottom_ipin_1.INVTX1_3_.scs8hd_inv_1_A chanx_right_in[1] vgnd vpwr scs8hd_diode_2
XFILLER_15_56 vpwr vgnd scs8hd_fill_2
XFILLER_15_34 vpwr vgnd scs8hd_fill_2
XANTENNA_mux_bottom_ipin_5.INVTX1_4_.scs8hd_inv_1_A chanx_left_in[5] vgnd vpwr scs8hd_diode_2
XFILLER_16_111 vgnd vpwr scs8hd_decap_4
XFILLER_0_298 vpwr vgnd scs8hd_fill_2
XPHY_183 vgnd vpwr scs8hd_tapvpwrvgnd_1
XPHY_172 vgnd vpwr scs8hd_tapvpwrvgnd_1
XPHY_161 vgnd vpwr scs8hd_tapvpwrvgnd_1
XPHY_150 vgnd vpwr scs8hd_tapvpwrvgnd_1
XFILLER_8_332 vgnd vpwr scs8hd_decap_4
XFILLER_12_383 vpwr vgnd scs8hd_fill_2
XANTENNA__143__B _145_/B vgnd vpwr scs8hd_diode_2
XFILLER_8_365 vpwr vgnd scs8hd_fill_2
XFILLER_8_398 vgnd vpwr scs8hd_decap_8
XANTENNA_mux_bottom_ipin_6.mux_l2_in_0_.TGATE_1_.scs8hd_ebufn_2_A mux_bottom_ipin_6.mux_l1_in_1_.TGATE_0_.scs8hd_ebufn_2/Z
+ vgnd vpwr scs8hd_diode_2
XFILLER_9_118 vpwr vgnd scs8hd_fill_2
XFILLER_13_114 vpwr vgnd scs8hd_fill_2
XFILLER_13_136 vpwr vgnd scs8hd_fill_2
XFILLER_5_357 vgnd vpwr scs8hd_decap_4
XANTENNA_mux_top_ipin_1.mux_l2_in_0_.TGATE_0_.scs8hd_ebufn_2_A mux_top_ipin_1.mux_l1_in_0_.TGATE_1_.scs8hd_ebufn_2/Z
+ vgnd vpwr scs8hd_diode_2
XANTENNA__138__B _134_/B vgnd vpwr scs8hd_diode_2
XANTENNA_mux_bottom_ipin_4.mux_l2_in_0_.TGATE_2_.scs8hd_ebufn_2_TEB mem_bottom_ipin_4.LATCH_5_.latch/Q
+ vgnd vpwr scs8hd_diode_2
XANTENNA__154__A _154_/A vgnd vpwr scs8hd_diode_2
XFILLER_8_162 vgnd vpwr scs8hd_fill_1
XFILLER_8_195 vpwr vgnd scs8hd_fill_2
XANTENNA_mux_bottom_ipin_2.mux_l1_in_0_.TGATE_1_.scs8hd_ebufn_2_A mux_bottom_ipin_2.INVTX1_1_.scs8hd_inv_1/Y
+ vgnd vpwr scs8hd_diode_2
XANTENNA_mem_bottom_ipin_6.LATCH_2_.latch_SLEEPB _128_/Y vgnd vpwr scs8hd_diode_2
XFILLER_10_139 vgnd vpwr scs8hd_decap_8
XFILLER_2_327 vgnd vpwr scs8hd_decap_8
XFILLER_2_305 vgnd vpwr scs8hd_decap_6
XFILLER_5_7 vgnd vpwr scs8hd_fill_1
XFILLER_12_57 vgnd vpwr scs8hd_decap_6
XFILLER_18_206 vgnd vpwr scs8hd_decap_8
XFILLER_1_360 vgnd vpwr scs8hd_decap_6
Xmem_bottom_ipin_1.LATCH_0_.latch data_in mem_bottom_ipin_1.LATCH_0_.latch/Q _172_/Y
+ vgnd vpwr scs8hd_lpflow_inputisolatch_1
XANTENNA__149__A _149_/A vgnd vpwr scs8hd_diode_2
XFILLER_20_404 vgnd vpwr scs8hd_decap_3
XFILLER_4_80 vpwr vgnd scs8hd_fill_2
XFILLER_2_113 vgnd vpwr scs8hd_decap_4
XFILLER_0_27 vgnd vpwr scs8hd_decap_4
Xmem_bottom_ipin_3.LATCH_3_.latch data_in mem_bottom_ipin_3.LATCH_3_.latch/Q _086_/Y
+ vgnd vpwr scs8hd_lpflow_inputisolatch_1
X_188_ _188_/HI _188_/LO vgnd vpwr scs8hd_conb_1
XANTENNA__151__B _149_/B vgnd vpwr scs8hd_diode_2
XFILLER_20_245 vgnd vpwr scs8hd_decap_3
Xmux_top_ipin_2.mux_l2_in_0_.TGATE_0_.scs8hd_ebufn_2 mux_top_ipin_2.mux_l1_in_0_.TGATE_1_.scs8hd_ebufn_2/Z
+ _155_/A mux_top_ipin_2.tap_buf4_0_.scs8hd_inv_1/A vgnd vpwr scs8hd_ebufn_2
Xmux_bottom_ipin_2.INVTX1_0_.scs8hd_inv_1 chanx_left_in[1] mux_bottom_ipin_2.INVTX1_0_.scs8hd_inv_1/Y
+ vgnd vpwr scs8hd_inv_1
XFILLER_11_201 vpwr vgnd scs8hd_fill_2
Xmux_top_ipin_1.INVTX1_0_.scs8hd_inv_1 chanx_left_in[0] mux_top_ipin_1.INVTX1_0_.scs8hd_inv_1/Y
+ vgnd vpwr scs8hd_inv_1
X_111_ _077_/A address[4] _077_/C _111_/X vgnd vpwr scs8hd_or3_4
XFILLER_7_227 vgnd vpwr scs8hd_decap_4
XFILLER_11_278 vpwr vgnd scs8hd_fill_2
XFILLER_19_367 vgnd vpwr scs8hd_decap_6
XANTENNA__146__B _145_/B vgnd vpwr scs8hd_diode_2
XFILLER_6_293 vgnd vpwr scs8hd_decap_12
XANTENNA__162__A _162_/A vgnd vpwr scs8hd_diode_2
Xmux_bottom_ipin_3.INVTX1_4_.scs8hd_inv_1 chanx_left_in[7] mux_bottom_ipin_3.INVTX1_4_.scs8hd_inv_1/Y
+ vgnd vpwr scs8hd_inv_1
XANTENNA__072__A enable vgnd vpwr scs8hd_diode_2
XANTENNA_mem_bottom_ipin_4.LATCH_3_.latch_SLEEPB _104_/Y vgnd vpwr scs8hd_diode_2
XANTENNA_mux_bottom_ipin_3.INVTX1_1_.scs8hd_inv_1_A chanx_right_in[2] vgnd vpwr scs8hd_diode_2
XFILLER_3_252 vgnd vpwr scs8hd_decap_4
XANTENNA_mux_bottom_ipin_6.mux_l2_in_0_.TGATE_1_.scs8hd_ebufn_2_TEB mem_bottom_ipin_6.LATCH_4_.latch/Q
+ vgnd vpwr scs8hd_diode_2
XFILLER_19_120 vpwr vgnd scs8hd_fill_2
XFILLER_3_296 vpwr vgnd scs8hd_fill_2
XFILLER_3_285 vpwr vgnd scs8hd_fill_2
XFILLER_10_90 vpwr vgnd scs8hd_fill_2
XFILLER_19_153 vpwr vgnd scs8hd_fill_2
XANTENNA__157__A _077_/A vgnd vpwr scs8hd_diode_2
XANTENNA_mux_bottom_ipin_7.INVTX1_2_.scs8hd_inv_1_A chanx_left_in[6] vgnd vpwr scs8hd_diode_2
Xmux_bottom_ipin_1.mux_l1_in_0_.TGATE_2_.scs8hd_ebufn_2 mux_bottom_ipin_1.INVTX1_2_.scs8hd_inv_1/Y
+ mem_bottom_ipin_1.LATCH_2_.latch/Q mux_bottom_ipin_1.mux_l1_in_0_.TGATE_1_.scs8hd_ebufn_2/Z
+ vgnd vpwr scs8hd_ebufn_2
XANTENNA__067__A address[2] vgnd vpwr scs8hd_diode_2
XFILLER_0_211 vgnd vpwr scs8hd_decap_6
XPHY_184 vgnd vpwr scs8hd_tapvpwrvgnd_1
XPHY_173 vgnd vpwr scs8hd_tapvpwrvgnd_1
XPHY_162 vgnd vpwr scs8hd_tapvpwrvgnd_1
XPHY_151 vgnd vpwr scs8hd_tapvpwrvgnd_1
XFILLER_8_311 vpwr vgnd scs8hd_fill_2
XFILLER_8_388 vgnd vpwr scs8hd_decap_8
XFILLER_12_351 vpwr vgnd scs8hd_fill_2
XPHY_140 vgnd vpwr scs8hd_tapvpwrvgnd_1
XANTENNA_mux_bottom_ipin_1.mux_l2_in_0_.TGATE_1_.scs8hd_ebufn_2_TEB mem_bottom_ipin_1.LATCH_4_.latch/Q
+ vgnd vpwr scs8hd_diode_2
XFILLER_5_336 vgnd vpwr scs8hd_decap_3
XFILLER_8_174 vgnd vpwr scs8hd_decap_8
XFILLER_12_192 vgnd vpwr scs8hd_decap_3
XFILLER_4_380 vgnd vpwr scs8hd_decap_12
XANTENNA__170__A _089_/B vgnd vpwr scs8hd_diode_2
XANTENNA__080__A address[1] vgnd vpwr scs8hd_diode_2
XFILLER_2_317 vgnd vpwr scs8hd_fill_1
XFILLER_5_144 vgnd vpwr scs8hd_decap_4
XANTENNA_mem_bottom_ipin_2.LATCH_4_.latch_SLEEPB _176_/Y vgnd vpwr scs8hd_diode_2
XFILLER_5_199 vpwr vgnd scs8hd_fill_2
XFILLER_17_240 vgnd vpwr scs8hd_decap_4
XANTENNA__149__B _149_/B vgnd vpwr scs8hd_diode_2
XANTENNA__165__A _165_/A vgnd vpwr scs8hd_diode_2
Xmem_bottom_ipin_6.LATCH_2_.latch data_in mem_bottom_ipin_6.LATCH_2_.latch/Q _128_/Y
+ vgnd vpwr scs8hd_lpflow_inputisolatch_1
XFILLER_11_405 vpwr vgnd scs8hd_fill_2
XANTENNA__075__A address[3] vgnd vpwr scs8hd_diode_2
XFILLER_2_169 vgnd vpwr scs8hd_fill_1
XFILLER_14_243 vgnd vpwr scs8hd_decap_6
X_187_ _187_/HI _187_/LO vgnd vpwr scs8hd_conb_1
XANTENNA__151__C _069_/C vgnd vpwr scs8hd_diode_2
XANTENNA_mux_bottom_ipin_6.mux_l1_in_1_.TGATE_1_.scs8hd_ebufn_2_A mux_bottom_ipin_6.INVTX1_4_.scs8hd_inv_1/Y
+ vgnd vpwr scs8hd_diode_2
XFILLER_1_180 vgnd vpwr scs8hd_fill_1
XANTENNA_mux_top_ipin_1.INVTX1_0_.scs8hd_inv_1_A chanx_left_in[0] vgnd vpwr scs8hd_diode_2
XFILLER_18_35 vgnd vpwr scs8hd_decap_12
X_110_ _148_/A _110_/B _110_/Y vgnd vpwr scs8hd_nor2_4
XFILLER_11_235 vgnd vpwr scs8hd_decap_3
XFILLER_7_206 vpwr vgnd scs8hd_fill_2
XANTENNA_mux_bottom_ipin_0.mux_l2_in_0_.TGATE_2_.scs8hd_ebufn_2_A _181_/HI vgnd vpwr
+ scs8hd_diode_2
XANTENNA_mux_bottom_ipin_3.mux_l2_in_0_.TGATE_0_.scs8hd_ebufn_2_TEB mem_bottom_ipin_3.LATCH_3_.latch/Q
+ vgnd vpwr scs8hd_diode_2
XANTENNA__162__B _158_/X vgnd vpwr scs8hd_diode_2
XFILLER_1_71 vpwr vgnd scs8hd_fill_2
XANTENNA_mem_top_ipin_1.LATCH_1_.latch_SLEEPB _149_/Y vgnd vpwr scs8hd_diode_2
XFILLER_0_404 vgnd vpwr scs8hd_decap_3
XFILLER_16_349 vgnd vpwr scs8hd_fill_1
Xmux_bottom_ipin_0.INVTX1_0_.scs8hd_inv_1 chanx_left_in[0] mux_bottom_ipin_0.INVTX1_0_.scs8hd_inv_1/Y
+ vgnd vpwr scs8hd_inv_1
XFILLER_10_80 vpwr vgnd scs8hd_fill_2
XANTENNA_mem_bottom_ipin_0.LATCH_5_.latch_SLEEPB _159_/Y vgnd vpwr scs8hd_diode_2
XANTENNA__157__B address[4] vgnd vpwr scs8hd_diode_2
XANTENNA__173__A _165_/A vgnd vpwr scs8hd_diode_2
XFILLER_13_319 vgnd vpwr scs8hd_decap_4
XANTENNA__083__A address[1] vgnd vpwr scs8hd_diode_2
XFILLER_16_102 vgnd vpwr scs8hd_decap_3
XPHY_152 vgnd vpwr scs8hd_tapvpwrvgnd_1
Xmux_bottom_ipin_1.INVTX1_4_.scs8hd_inv_1 chanx_left_in[5] mux_bottom_ipin_1.INVTX1_4_.scs8hd_inv_1/Y
+ vgnd vpwr scs8hd_inv_1
XPHY_130 vgnd vpwr scs8hd_tapvpwrvgnd_1
XPHY_141 vgnd vpwr scs8hd_tapvpwrvgnd_1
XPHY_185 vgnd vpwr scs8hd_tapvpwrvgnd_1
XPHY_174 vgnd vpwr scs8hd_tapvpwrvgnd_1
XPHY_163 vgnd vpwr scs8hd_tapvpwrvgnd_1
XFILLER_12_341 vgnd vpwr scs8hd_fill_1
Xmux_top_ipin_0.INVTX1_4_.scs8hd_inv_1 chanx_left_in[8] mux_top_ipin_0.INVTX1_4_.scs8hd_inv_1/Y
+ vgnd vpwr scs8hd_inv_1
XANTENNA_mux_top_ipin_0.tap_buf4_0_.scs8hd_inv_1_A mux_top_ipin_0.tap_buf4_0_.scs8hd_inv_1/A
+ vgnd vpwr scs8hd_diode_2
XANTENNA__168__A _101_/A vgnd vpwr scs8hd_diode_2
XFILLER_7_92 vpwr vgnd scs8hd_fill_2
XANTENNA_mux_bottom_ipin_7.mux_l2_in_0_.TGATE_1_.scs8hd_ebufn_2_A mux_bottom_ipin_7.mux_l2_in_0_.TGATE_1_.scs8hd_ebufn_2/A
+ vgnd vpwr scs8hd_diode_2
XANTENNA__078__A _078_/A vgnd vpwr scs8hd_diode_2
XFILLER_3_39 vgnd vpwr scs8hd_fill_1
Xmux_top_ipin_1.mux_l2_in_0_.TGATE_0_.scs8hd_ebufn_2 mux_top_ipin_1.mux_l1_in_0_.TGATE_1_.scs8hd_ebufn_2/Z
+ _153_/A mux_top_ipin_1.tap_buf4_0_.scs8hd_inv_1/A vgnd vpwr scs8hd_ebufn_2
XANTENNA_mux_top_ipin_2.mux_l2_in_0_.TGATE_0_.scs8hd_ebufn_2_A mux_top_ipin_2.mux_l1_in_0_.TGATE_1_.scs8hd_ebufn_2/Z
+ vgnd vpwr scs8hd_diode_2
XANTENNA__170__B _171_/B vgnd vpwr scs8hd_diode_2
Xmux_bottom_ipin_7.INVTX1_1_.scs8hd_inv_1 chanx_right_in[2] mux_bottom_ipin_7.INVTX1_1_.scs8hd_inv_1/Y
+ vgnd vpwr scs8hd_inv_1
XFILLER_4_392 vgnd vpwr scs8hd_decap_4
XANTENNA_mux_bottom_ipin_3.mux_l1_in_0_.TGATE_1_.scs8hd_ebufn_2_A mux_bottom_ipin_3.INVTX1_1_.scs8hd_inv_1/Y
+ vgnd vpwr scs8hd_diode_2
XANTENNA__080__B _067_/Y vgnd vpwr scs8hd_diode_2
XFILLER_18_219 vgnd vpwr scs8hd_decap_8
XFILLER_5_101 vpwr vgnd scs8hd_fill_2
XFILLER_5_112 vpwr vgnd scs8hd_fill_2
XFILLER_5_123 vgnd vpwr scs8hd_fill_1
XFILLER_17_252 vpwr vgnd scs8hd_fill_2
XANTENNA__149__C _069_/C vgnd vpwr scs8hd_diode_2
XANTENNA__165__B _149_/A vgnd vpwr scs8hd_diode_2
XFILLER_4_93 vgnd vpwr scs8hd_decap_4
XANTENNA__091__A _091_/A vgnd vpwr scs8hd_diode_2
XFILLER_2_159 vpwr vgnd scs8hd_fill_2
XFILLER_2_137 vgnd vpwr scs8hd_decap_3
XFILLER_2_126 vpwr vgnd scs8hd_fill_2
XFILLER_9_27 vpwr vgnd scs8hd_fill_2
X_186_ _186_/HI _186_/LO vgnd vpwr scs8hd_conb_1
XFILLER_13_91 vpwr vgnd scs8hd_fill_2
Xmux_bottom_ipin_0.mux_l1_in_0_.TGATE_2_.scs8hd_ebufn_2 mux_bottom_ipin_0.INVTX1_2_.scs8hd_inv_1/Y
+ mem_bottom_ipin_0.LATCH_2_.latch/Q mux_bottom_ipin_0.mux_l2_in_0_.TGATE_0_.scs8hd_ebufn_2/A
+ vgnd vpwr scs8hd_ebufn_2
XANTENNA__176__A _101_/A vgnd vpwr scs8hd_diode_2
XFILLER_9_281 vpwr vgnd scs8hd_fill_2
XFILLER_18_47 vgnd vpwr scs8hd_decap_12
XANTENNA__086__A _079_/B vgnd vpwr scs8hd_diode_2
XFILLER_11_258 vgnd vpwr scs8hd_decap_3
XFILLER_1_3 vgnd vpwr scs8hd_decap_8
XFILLER_19_314 vgnd vpwr scs8hd_decap_12
XFILLER_19_303 vpwr vgnd scs8hd_fill_2
XANTENNA_mem_bottom_ipin_7.LATCH_4_.latch_SLEEPB _134_/Y vgnd vpwr scs8hd_diode_2
XFILLER_6_251 vpwr vgnd scs8hd_fill_2
XFILLER_6_262 vpwr vgnd scs8hd_fill_2
X_169_ _103_/A _171_/B _169_/Y vgnd vpwr scs8hd_nor2_4
XFILLER_10_291 vgnd vpwr scs8hd_decap_8
XANTENNA_mem_bottom_ipin_2.LATCH_4_.latch_D data_in vgnd vpwr scs8hd_diode_2
XFILLER_18_380 vgnd vpwr scs8hd_decap_12
XFILLER_1_83 vgnd vpwr scs8hd_decap_8
XANTENNA_mem_bottom_ipin_3.LATCH_2_.latch_D data_in vgnd vpwr scs8hd_diode_2
XFILLER_20_15 vgnd vpwr scs8hd_decap_12
XANTENNA_mem_bottom_ipin_4.LATCH_0_.latch_D data_in vgnd vpwr scs8hd_diode_2
Xmux_bottom_ipin_7.mux_l1_in_1_.TGATE_0_.scs8hd_ebufn_2 mux_bottom_ipin_7.INVTX1_3_.scs8hd_inv_1/Y
+ mem_bottom_ipin_7.LATCH_0_.latch/Q mux_bottom_ipin_7.mux_l2_in_0_.TGATE_1_.scs8hd_ebufn_2/A
+ vgnd vpwr scs8hd_ebufn_2
XFILLER_6_17 vpwr vgnd scs8hd_fill_2
XFILLER_6_39 vpwr vgnd scs8hd_fill_2
XANTENNA__157__C address[3] vgnd vpwr scs8hd_diode_2
XANTENNA__173__B _173_/B vgnd vpwr scs8hd_diode_2
XFILLER_15_48 vgnd vpwr scs8hd_decap_8
XFILLER_15_15 vpwr vgnd scs8hd_fill_2
XANTENNA_mux_bottom_ipin_2.INVTX1_5_.scs8hd_inv_1_A chanx_right_in[6] vgnd vpwr scs8hd_diode_2
XPHY_175 vgnd vpwr scs8hd_tapvpwrvgnd_1
XPHY_164 vgnd vpwr scs8hd_tapvpwrvgnd_1
XFILLER_16_125 vgnd vpwr scs8hd_decap_8
XPHY_153 vgnd vpwr scs8hd_tapvpwrvgnd_1
XPHY_142 vgnd vpwr scs8hd_tapvpwrvgnd_1
XPHY_120 vgnd vpwr scs8hd_tapvpwrvgnd_1
XPHY_131 vgnd vpwr scs8hd_tapvpwrvgnd_1
XPHY_186 vgnd vpwr scs8hd_tapvpwrvgnd_1
XFILLER_8_324 vpwr vgnd scs8hd_fill_2
XFILLER_8_346 vpwr vgnd scs8hd_fill_2
XFILLER_12_364 vgnd vpwr scs8hd_decap_3
XPHY_0 vgnd vpwr scs8hd_decap_3
XANTENNA__168__B _171_/B vgnd vpwr scs8hd_diode_2
XFILLER_7_71 vpwr vgnd scs8hd_fill_2
XANTENNA__094__A _093_/X vgnd vpwr scs8hd_diode_2
XFILLER_3_29 vpwr vgnd scs8hd_fill_2
XFILLER_3_18 vpwr vgnd scs8hd_fill_2
XANTENNA_mux_bottom_ipin_0.mux_l1_in_1_.TGATE_2_.scs8hd_ebufn_2_A mux_bottom_ipin_0.INVTX1_5_.scs8hd_inv_1/Y
+ vgnd vpwr scs8hd_diode_2
XANTENNA_mem_bottom_ipin_7.LATCH_4_.latch_D data_in vgnd vpwr scs8hd_diode_2
XFILLER_8_154 vgnd vpwr scs8hd_decap_6
XANTENNA__179__A _107_/A vgnd vpwr scs8hd_diode_2
XANTENNA_mem_bottom_ipin_5.LATCH_5_.latch_SLEEPB _115_/Y vgnd vpwr scs8hd_diode_2
XFILLER_10_109 vpwr vgnd scs8hd_fill_2
XFILLER_12_49 vgnd vpwr scs8hd_fill_1
XANTENNA__080__C address[0] vgnd vpwr scs8hd_diode_2
XANTENNA__089__A _079_/B vgnd vpwr scs8hd_diode_2
XFILLER_5_179 vpwr vgnd scs8hd_fill_2
XFILLER_17_297 vgnd vpwr scs8hd_decap_8
XFILLER_17_286 vgnd vpwr scs8hd_decap_4
Xmux_bottom_ipin_5.INVTX1_1_.scs8hd_inv_1 chanx_right_in[0] mux_bottom_ipin_5.INVTX1_1_.scs8hd_inv_1/Y
+ vgnd vpwr scs8hd_inv_1
XFILLER_3_7 vpwr vgnd scs8hd_fill_2
XFILLER_14_289 vgnd vpwr scs8hd_decap_4
XFILLER_14_267 vpwr vgnd scs8hd_fill_2
X_185_ _185_/HI _185_/LO vgnd vpwr scs8hd_conb_1
XANTENNA_mux_bottom_ipin_7.mux_l1_in_1_.TGATE_1_.scs8hd_ebufn_2_A mux_bottom_ipin_7.INVTX1_4_.scs8hd_inv_1/Y
+ vgnd vpwr scs8hd_diode_2
XFILLER_20_215 vpwr vgnd scs8hd_fill_2
XANTENNA__176__B _178_/B vgnd vpwr scs8hd_diode_2
XANTENNA__192__A chanx_right_in[8] vgnd vpwr scs8hd_diode_2
XANTENNA__086__B _103_/A vgnd vpwr scs8hd_diode_2
Xmux_bottom_ipin_6.INVTX1_5_.scs8hd_inv_1 chanx_right_in[6] mux_bottom_ipin_6.INVTX1_5_.scs8hd_inv_1/Y
+ vgnd vpwr scs8hd_inv_1
Xmem_bottom_ipin_2.LATCH_2_.latch data_in mem_bottom_ipin_2.LATCH_2_.latch/Q _178_/Y
+ vgnd vpwr scs8hd_lpflow_inputisolatch_1
XANTENNA_mux_bottom_ipin_6.mux_l1_in_0_.TGATE_2_.scs8hd_ebufn_2_TEB mem_bottom_ipin_6.LATCH_2_.latch/Q
+ vgnd vpwr scs8hd_diode_2
XFILLER_19_326 vgnd vpwr scs8hd_decap_12
XANTENNA_mux_top_ipin_0.mux_l1_in_0_.TGATE_0_.scs8hd_ebufn_2_TEB mem_top_ipin_0.LATCH_0_.latch/Q
+ vgnd vpwr scs8hd_diode_2
XANTENNA_mux_top_ipin_0.INVTX1_4_.scs8hd_inv_1_A chanx_left_in[8] vgnd vpwr scs8hd_diode_2
XFILLER_6_274 vgnd vpwr scs8hd_fill_1
X_168_ _101_/A _171_/B _168_/Y vgnd vpwr scs8hd_nor2_4
X_099_ _098_/X _110_/B vgnd vpwr scs8hd_buf_1
XFILLER_18_392 vgnd vpwr scs8hd_decap_4
XFILLER_1_62 vgnd vpwr scs8hd_decap_4
XFILLER_1_95 vpwr vgnd scs8hd_fill_2
XANTENNA_mux_bottom_ipin_1.mux_l2_in_0_.TGATE_2_.scs8hd_ebufn_2_A _182_/HI vgnd vpwr
+ scs8hd_diode_2
XFILLER_20_27 vgnd vpwr scs8hd_decap_4
XANTENNA_mux_bottom_ipin_0.INVTX1_2_.scs8hd_inv_1_A chanx_left_in[4] vgnd vpwr scs8hd_diode_2
Xmem_bottom_ipin_4.LATCH_5_.latch data_in mem_bottom_ipin_4.LATCH_5_.latch/Q _100_/Y
+ vgnd vpwr scs8hd_lpflow_inputisolatch_1
XANTENNA__097__A address[5] vgnd vpwr scs8hd_diode_2
Xmux_top_ipin_0.mux_l2_in_0_.TGATE_0_.scs8hd_ebufn_2 mux_top_ipin_0.mux_l1_in_0_.TGATE_0_.scs8hd_ebufn_2/Z
+ mem_top_ipin_0.LATCH_3_.latch/Q mux_top_ipin_0.tap_buf4_0_.scs8hd_inv_1/A vgnd vpwr
+ scs8hd_ebufn_2
XFILLER_6_29 vpwr vgnd scs8hd_fill_2
XANTENNA_mux_bottom_ipin_4.INVTX1_3_.scs8hd_inv_1_A chanx_right_in[4] vgnd vpwr scs8hd_diode_2
XFILLER_10_93 vgnd vpwr scs8hd_decap_3
XFILLER_19_123 vgnd vpwr scs8hd_decap_12
XFILLER_19_112 vgnd vpwr scs8hd_decap_8
XFILLER_19_91 vgnd vpwr scs8hd_decap_12
XFILLER_15_351 vpwr vgnd scs8hd_fill_2
XFILLER_15_340 vpwr vgnd scs8hd_fill_2
XANTENNA_mux_bottom_ipin_1.mux_l1_in_0_.TGATE_2_.scs8hd_ebufn_2_TEB mem_bottom_ipin_1.LATCH_2_.latch/Q
+ vgnd vpwr scs8hd_diode_2
XANTENNA__157__D _165_/A vgnd vpwr scs8hd_diode_2
XFILLER_15_38 vgnd vpwr scs8hd_fill_1
XFILLER_16_115 vgnd vpwr scs8hd_fill_1
XPHY_187 vgnd vpwr scs8hd_tapvpwrvgnd_1
XPHY_176 vgnd vpwr scs8hd_tapvpwrvgnd_1
XPHY_165 vgnd vpwr scs8hd_tapvpwrvgnd_1
XFILLER_16_159 vpwr vgnd scs8hd_fill_2
XPHY_154 vgnd vpwr scs8hd_tapvpwrvgnd_1
XPHY_143 vgnd vpwr scs8hd_tapvpwrvgnd_1
XPHY_110 vgnd vpwr scs8hd_tapvpwrvgnd_1
XPHY_121 vgnd vpwr scs8hd_tapvpwrvgnd_1
XFILLER_12_332 vgnd vpwr scs8hd_decap_4
XFILLER_12_387 vpwr vgnd scs8hd_fill_2
XPHY_132 vgnd vpwr scs8hd_tapvpwrvgnd_1
XFILLER_8_369 vpwr vgnd scs8hd_fill_2
XFILLER_12_398 vgnd vpwr scs8hd_decap_8