* NGSPICE file created from cbx_1__0_.ext - technology: sky130A

* Black-box entry subcircuit for sky130_fd_sc_hd__fill_1 abstract view
.subckt sky130_fd_sc_hd__fill_1 VGND VNB VPB VPWR
.ends

* Black-box entry subcircuit for sky130_fd_sc_hd__decap_12 abstract view
.subckt sky130_fd_sc_hd__decap_12 VGND VNB VPB VPWR
.ends

* Black-box entry subcircuit for sky130_fd_sc_hd__diode_2 abstract view
.subckt sky130_fd_sc_hd__diode_2 DIODE VGND VNB VPB VPWR
.ends

* Black-box entry subcircuit for sky130_fd_sc_hd__decap_3 abstract view
.subckt sky130_fd_sc_hd__decap_3 VGND VNB VPB VPWR
.ends

* Black-box entry subcircuit for sky130_fd_sc_hd__mux2_1 abstract view
.subckt sky130_fd_sc_hd__mux2_1 A0 A1 S X VGND VNB VPB VPWR
.ends

* Black-box entry subcircuit for sky130_fd_sc_hd__fill_2 abstract view
.subckt sky130_fd_sc_hd__fill_2 VGND VNB VPB VPWR
.ends

* Black-box entry subcircuit for sky130_fd_sc_hd__buf_2 abstract view
.subckt sky130_fd_sc_hd__buf_2 A X VGND VNB VPB VPWR
.ends

* Black-box entry subcircuit for sky130_fd_sc_hd__decap_4 abstract view
.subckt sky130_fd_sc_hd__decap_4 VGND VNB VPB VPWR
.ends

* Black-box entry subcircuit for sky130_fd_sc_hd__decap_6 abstract view
.subckt sky130_fd_sc_hd__decap_6 VGND VNB VPB VPWR
.ends

* Black-box entry subcircuit for sky130_fd_sc_hd__tapvpwrvgnd_1 abstract view
.subckt sky130_fd_sc_hd__tapvpwrvgnd_1 VGND VPWR
.ends

* Black-box entry subcircuit for sky130_fd_sc_hd__decap_8 abstract view
.subckt sky130_fd_sc_hd__decap_8 VGND VNB VPB VPWR
.ends

* Black-box entry subcircuit for sky130_fd_sc_hd__dfxbp_1 abstract view
.subckt sky130_fd_sc_hd__dfxbp_1 D Q Q_N CLK VGND VNB VPB VPWR
.ends

* Black-box entry subcircuit for sky130_fd_sc_hd__buf_4 abstract view
.subckt sky130_fd_sc_hd__buf_4 A X VGND VNB VPB VPWR
.ends

* Black-box entry subcircuit for sky130_fd_sc_hd__clkbuf_1 abstract view
.subckt sky130_fd_sc_hd__clkbuf_1 A X VGND VNB VPB VPWR
.ends

* Black-box entry subcircuit for sky130_fd_sc_hd__conb_1 abstract view
.subckt sky130_fd_sc_hd__conb_1 HI LO VGND VNB VPB VPWR
.ends

* Black-box entry subcircuit for sky130_fd_sc_hd__clkbuf_16 abstract view
.subckt sky130_fd_sc_hd__clkbuf_16 A X VGND VNB VPB VPWR
.ends

.subckt cbx_1__0_ SC_IN_BOT SC_IN_TOP SC_OUT_BOT SC_OUT_TOP bottom_grid_pin_0_ bottom_grid_pin_10_
+ bottom_grid_pin_2_ bottom_grid_pin_4_ bottom_grid_pin_6_ bottom_grid_pin_8_ ccff_head
+ ccff_tail chanx_left_in[0] chanx_left_in[10] chanx_left_in[11] chanx_left_in[12]
+ chanx_left_in[13] chanx_left_in[14] chanx_left_in[15] chanx_left_in[16] chanx_left_in[17]
+ chanx_left_in[18] chanx_left_in[19] chanx_left_in[1] chanx_left_in[2] chanx_left_in[3]
+ chanx_left_in[4] chanx_left_in[5] chanx_left_in[6] chanx_left_in[7] chanx_left_in[8]
+ chanx_left_in[9] chanx_left_out[0] chanx_left_out[10] chanx_left_out[11] chanx_left_out[12]
+ chanx_left_out[13] chanx_left_out[14] chanx_left_out[15] chanx_left_out[16] chanx_left_out[17]
+ chanx_left_out[18] chanx_left_out[19] chanx_left_out[1] chanx_left_out[2] chanx_left_out[3]
+ chanx_left_out[4] chanx_left_out[5] chanx_left_out[6] chanx_left_out[7] chanx_left_out[8]
+ chanx_left_out[9] chanx_right_in[0] chanx_right_in[10] chanx_right_in[11] chanx_right_in[12]
+ chanx_right_in[13] chanx_right_in[14] chanx_right_in[15] chanx_right_in[16] chanx_right_in[17]
+ chanx_right_in[18] chanx_right_in[19] chanx_right_in[1] chanx_right_in[2] chanx_right_in[3]
+ chanx_right_in[4] chanx_right_in[5] chanx_right_in[6] chanx_right_in[7] chanx_right_in[8]
+ chanx_right_in[9] chanx_right_out[0] chanx_right_out[10] chanx_right_out[11] chanx_right_out[12]
+ chanx_right_out[13] chanx_right_out[14] chanx_right_out[15] chanx_right_out[16]
+ chanx_right_out[17] chanx_right_out[18] chanx_right_out[19] chanx_right_out[1] chanx_right_out[2]
+ chanx_right_out[3] chanx_right_out[4] chanx_right_out[5] chanx_right_out[6] chanx_right_out[7]
+ chanx_right_out[8] chanx_right_out[9] gfpga_pad_EMBEDDED_IO_SOC_DIR[0] gfpga_pad_EMBEDDED_IO_SOC_DIR[1]
+ gfpga_pad_EMBEDDED_IO_SOC_DIR[2] gfpga_pad_EMBEDDED_IO_SOC_DIR[3] gfpga_pad_EMBEDDED_IO_SOC_DIR[4]
+ gfpga_pad_EMBEDDED_IO_SOC_DIR[5] gfpga_pad_EMBEDDED_IO_SOC_IN[0] gfpga_pad_EMBEDDED_IO_SOC_IN[1]
+ gfpga_pad_EMBEDDED_IO_SOC_IN[2] gfpga_pad_EMBEDDED_IO_SOC_IN[3] gfpga_pad_EMBEDDED_IO_SOC_IN[4]
+ gfpga_pad_EMBEDDED_IO_SOC_IN[5] gfpga_pad_EMBEDDED_IO_SOC_OUT[0] gfpga_pad_EMBEDDED_IO_SOC_OUT[1]
+ gfpga_pad_EMBEDDED_IO_SOC_OUT[2] gfpga_pad_EMBEDDED_IO_SOC_OUT[3] gfpga_pad_EMBEDDED_IO_SOC_OUT[4]
+ gfpga_pad_EMBEDDED_IO_SOC_OUT[5] prog_clk top_width_0_height_0__pin_0_ top_width_0_height_0__pin_10_
+ top_width_0_height_0__pin_11_lower top_width_0_height_0__pin_11_upper top_width_0_height_0__pin_1_lower
+ top_width_0_height_0__pin_1_upper top_width_0_height_0__pin_2_ top_width_0_height_0__pin_3_lower
+ top_width_0_height_0__pin_3_upper top_width_0_height_0__pin_4_ top_width_0_height_0__pin_5_lower
+ top_width_0_height_0__pin_5_upper top_width_0_height_0__pin_6_ top_width_0_height_0__pin_7_lower
+ top_width_0_height_0__pin_7_upper top_width_0_height_0__pin_8_ top_width_0_height_0__pin_9_lower
+ top_width_0_height_0__pin_9_upper VPWR VGND
XFILLER_22_111 VGND VGND VPWR VPWR sky130_fd_sc_hd__fill_1
XFILLER_22_133 VGND VGND VPWR VPWR sky130_fd_sc_hd__decap_12
XFILLER_22_166 VGND VGND VPWR VPWR sky130_fd_sc_hd__decap_12
XANTENNA_mux_top_ipin_0.mux_l2_in_1__S mux_top_ipin_0.mux_l2_in_3_/S VGND VGND VPWR
+ VPWR sky130_fd_sc_hd__diode_2
XFILLER_7_7 VGND VGND VPWR VPWR sky130_fd_sc_hd__decap_3
Xmux_top_ipin_1.mux_l1_in_1_ chanx_right_in[3] chanx_left_in[3] mux_top_ipin_1.mux_l1_in_1_/S
+ mux_top_ipin_1.mux_l1_in_1_/X VGND VGND VPWR VPWR sky130_fd_sc_hd__mux2_1
XFILLER_3_23 VGND VGND VPWR VPWR sky130_fd_sc_hd__fill_2
XFILLER_8_181 VGND VGND VPWR VPWR sky130_fd_sc_hd__fill_1
XANTENNA_mem_top_ipin_4.sky130_fd_sc_hd__dfxbp_1_3__D mux_top_ipin_4.mux_l3_in_0_/S
+ VGND VGND VPWR VPWR sky130_fd_sc_hd__diode_2
XFILLER_35_280 VGND VGND VPWR VPWR sky130_fd_sc_hd__decap_12
XFILLER_27_269 VGND VGND VPWR VPWR sky130_fd_sc_hd__decap_12
XANTENNA_mux_top_ipin_5.mux_l1_in_2__A1 chanx_left_in[5] VGND VGND VPWR VPWR sky130_fd_sc_hd__diode_2
XFILLER_10_158 VGND VGND VPWR VPWR sky130_fd_sc_hd__fill_1
XFILLER_12_32 VGND VGND VPWR VPWR sky130_fd_sc_hd__decap_12
XFILLER_33_228 VGND VGND VPWR VPWR sky130_fd_sc_hd__fill_2
XANTENNA_mem_top_ipin_3.sky130_fd_sc_hd__dfxbp_1_0__CLK clkbuf_2_1_0_prog_clk/X VGND
+ VGND VPWR VPWR sky130_fd_sc_hd__diode_2
XFILLER_5_162 VGND VGND VPWR VPWR sky130_fd_sc_hd__fill_2
X_66_ _66_/A SC_OUT_TOP VGND VGND VPWR VPWR sky130_fd_sc_hd__buf_2
XFILLER_24_239 VGND VGND VPWR VPWR sky130_fd_sc_hd__decap_12
XANTENNA_mux_top_ipin_0.sky130_fd_sc_hd__buf_4_0__A mux_top_ipin_0.mux_l4_in_0_/X
+ VGND VGND VPWR VPWR sky130_fd_sc_hd__diode_2
XFILLER_23_86 VGND VGND VPWR VPWR sky130_fd_sc_hd__decap_12
XFILLER_9_66 VGND VGND VPWR VPWR sky130_fd_sc_hd__fill_2
XANTENNA_mux_top_ipin_5.mux_l2_in_1__A1 mux_top_ipin_5.mux_l1_in_2_/X VGND VGND VPWR
+ VPWR sky130_fd_sc_hd__diode_2
XANTENNA_mux_top_ipin_5.mux_l2_in_2__S mux_top_ipin_5.mux_l2_in_3_/S VGND VGND VPWR
+ VPWR sky130_fd_sc_hd__diode_2
XANTENNA_clkbuf_2_1_0_prog_clk_A clkbuf_2_1_0_prog_clk/A VGND VGND VPWR VPWR sky130_fd_sc_hd__diode_2
X_49_ top_width_0_height_0__pin_4_ gfpga_pad_EMBEDDED_IO_SOC_OUT[2] VGND VGND VPWR
+ VPWR sky130_fd_sc_hd__buf_2
XFILLER_11_242 VGND VGND VPWR VPWR sky130_fd_sc_hd__fill_2
XFILLER_7_257 VGND VGND VPWR VPWR sky130_fd_sc_hd__decap_12
XANTENNA_mux_top_ipin_3.mux_l2_in_3__A1 chanx_right_in[19] VGND VGND VPWR VPWR sky130_fd_sc_hd__diode_2
XFILLER_4_227 VGND VGND VPWR VPWR sky130_fd_sc_hd__decap_12
XFILLER_20_32 VGND VGND VPWR VPWR sky130_fd_sc_hd__decap_4
XFILLER_29_74 VGND VGND VPWR VPWR sky130_fd_sc_hd__decap_12
XANTENNA_mux_top_ipin_2.mux_l1_in_0__A0 chanx_right_in[0] VGND VGND VPWR VPWR sky130_fd_sc_hd__diode_2
XANTENNA_mux_top_ipin_5.mux_l3_in_0__A1 mux_top_ipin_5.mux_l2_in_0_/X VGND VGND VPWR
+ VPWR sky130_fd_sc_hd__diode_2
XFILLER_6_12 VGND VGND VPWR VPWR sky130_fd_sc_hd__fill_2
XFILLER_6_23 VGND VGND VPWR VPWR sky130_fd_sc_hd__decap_6
XFILLER_15_32 VGND VGND VPWR VPWR sky130_fd_sc_hd__fill_2
XFILLER_31_86 VGND VGND VPWR VPWR sky130_fd_sc_hd__decap_12
XFILLER_0_230 VGND VGND VPWR VPWR sky130_fd_sc_hd__decap_6
XFILLER_0_296 VGND VGND VPWR VPWR sky130_fd_sc_hd__decap_3
XFILLER_0_263 VGND VGND VPWR VPWR sky130_fd_sc_hd__decap_4
XFILLER_31_123 VGND VGND VPWR VPWR sky130_fd_sc_hd__decap_12
XPHY_170 VGND VPWR sky130_fd_sc_hd__tapvpwrvgnd_1
XFILLER_31_178 VGND VGND VPWR VPWR sky130_fd_sc_hd__decap_4
XANTENNA_mux_top_ipin_0.mux_l1_in_2__A0 chanx_right_in[4] VGND VGND VPWR VPWR sky130_fd_sc_hd__diode_2
XPHY_181 VGND VPWR sky130_fd_sc_hd__tapvpwrvgnd_1
XPHY_192 VGND VPWR sky130_fd_sc_hd__tapvpwrvgnd_1
XFILLER_22_145 VGND VGND VPWR VPWR sky130_fd_sc_hd__decap_8
XFILLER_22_178 VGND VGND VPWR VPWR sky130_fd_sc_hd__decap_12
Xmux_top_ipin_1.mux_l1_in_0_ chanx_right_in[1] chanx_left_in[1] mux_top_ipin_1.mux_l1_in_1_/S
+ mux_top_ipin_1.mux_l1_in_0_/X VGND VGND VPWR VPWR sky130_fd_sc_hd__mux2_1
XANTENNA_mux_top_ipin_3.sky130_fd_sc_hd__buf_4_0__A mux_top_ipin_3.mux_l4_in_0_/X
+ VGND VGND VPWR VPWR sky130_fd_sc_hd__diode_2
XFILLER_13_101 VGND VGND VPWR VPWR sky130_fd_sc_hd__fill_2
XFILLER_13_123 VGND VGND VPWR VPWR sky130_fd_sc_hd__decap_12
XFILLER_13_178 VGND VGND VPWR VPWR sky130_fd_sc_hd__fill_2
XFILLER_8_160 VGND VGND VPWR VPWR sky130_fd_sc_hd__fill_1
XFILLER_35_292 VGND VGND VPWR VPWR sky130_fd_sc_hd__decap_6
XFILLER_12_44 VGND VGND VPWR VPWR sky130_fd_sc_hd__decap_6
XANTENNA_mux_top_ipin_0.mux_l2_in_1__A0 chanx_left_in[10] VGND VGND VPWR VPWR sky130_fd_sc_hd__diode_2
XFILLER_33_218 VGND VGND VPWR VPWR sky130_fd_sc_hd__decap_4
XFILLER_18_215 VGND VGND VPWR VPWR sky130_fd_sc_hd__decap_12
XFILLER_5_152 VGND VGND VPWR VPWR sky130_fd_sc_hd__decap_4
X_65_ _65_/A SC_OUT_BOT VGND VGND VPWR VPWR sky130_fd_sc_hd__buf_2
XFILLER_23_98 VGND VGND VPWR VPWR sky130_fd_sc_hd__decap_12
XFILLER_0_14 VGND VGND VPWR VPWR sky130_fd_sc_hd__fill_2
XFILLER_0_58 VGND VGND VPWR VPWR sky130_fd_sc_hd__fill_2
XFILLER_9_23 VGND VGND VPWR VPWR sky130_fd_sc_hd__fill_2
XFILLER_14_251 VGND VGND VPWR VPWR sky130_fd_sc_hd__decap_12
X_48_ top_width_0_height_0__pin_6_ gfpga_pad_EMBEDDED_IO_SOC_OUT[3] VGND VGND VPWR
+ VPWR sky130_fd_sc_hd__buf_2
XANTENNA_mux_top_ipin_0.mux_l3_in_0__A0 mux_top_ipin_0.mux_l2_in_1_/X VGND VGND VPWR
+ VPWR sky130_fd_sc_hd__diode_2
XFILLER_20_276 VGND VGND VPWR VPWR sky130_fd_sc_hd__decap_12
XFILLER_18_32 VGND VGND VPWR VPWR sky130_fd_sc_hd__decap_4
XFILLER_7_269 VGND VGND VPWR VPWR sky130_fd_sc_hd__decap_6
XFILLER_15_7 VGND VGND VPWR VPWR sky130_fd_sc_hd__fill_2
XFILLER_6_280 VGND VGND VPWR VPWR sky130_fd_sc_hd__decap_12
Xltile_mode_io__0.ltile_physical_iopad_0.EMBEDDED_IO_mem.sky130_fd_sc_hd__dfxbp_1_0_
+ mux_top_ipin_5.mux_l4_in_0_/S _45_/A ltile_mode_io__0.ltile_physical_iopad_0.EMBEDDED_IO_mem.sky130_fd_sc_hd__dfxbp_1_0_/Q_N
+ clkbuf_2_0_0_prog_clk/X VGND VGND VPWR VPWR sky130_fd_sc_hd__dfxbp_1
XFILLER_4_239 VGND VGND VPWR VPWR sky130_fd_sc_hd__decap_12
XFILLER_20_11 VGND VGND VPWR VPWR sky130_fd_sc_hd__fill_1
XFILLER_29_86 VGND VGND VPWR VPWR sky130_fd_sc_hd__decap_12
XANTENNA_mux_top_ipin_2.mux_l1_in_0__A1 chanx_left_in[0] VGND VGND VPWR VPWR sky130_fd_sc_hd__diode_2
XFILLER_3_283 VGND VGND VPWR VPWR sky130_fd_sc_hd__fill_2
XFILLER_6_79 VGND VGND VPWR VPWR sky130_fd_sc_hd__decap_12
XFILLER_19_184 VGND VGND VPWR VPWR sky130_fd_sc_hd__decap_12
XFILLER_34_154 VGND VGND VPWR VPWR sky130_fd_sc_hd__decap_12
XFILLER_15_11 VGND VGND VPWR VPWR sky130_fd_sc_hd__fill_2
XFILLER_15_44 VGND VGND VPWR VPWR sky130_fd_sc_hd__decap_12
XFILLER_15_66 VGND VGND VPWR VPWR sky130_fd_sc_hd__fill_2
XFILLER_25_110 VGND VGND VPWR VPWR sky130_fd_sc_hd__decap_12
XFILLER_31_98 VGND VGND VPWR VPWR sky130_fd_sc_hd__decap_12
XFILLER_0_275 VGND VGND VPWR VPWR sky130_fd_sc_hd__decap_4
XANTENNA_mem_top_ipin_1.sky130_fd_sc_hd__dfxbp_1_2__D mux_top_ipin_1.mux_l2_in_2_/S
+ VGND VGND VPWR VPWR sky130_fd_sc_hd__diode_2
XFILLER_16_121 VGND VGND VPWR VPWR sky130_fd_sc_hd__fill_2
XFILLER_31_135 VGND VGND VPWR VPWR sky130_fd_sc_hd__decap_12
XFILLER_16_154 VGND VGND VPWR VPWR sky130_fd_sc_hd__decap_12
XPHY_160 VGND VPWR sky130_fd_sc_hd__tapvpwrvgnd_1
XPHY_171 VGND VPWR sky130_fd_sc_hd__tapvpwrvgnd_1
XPHY_182 VGND VPWR sky130_fd_sc_hd__tapvpwrvgnd_1
XPHY_193 VGND VPWR sky130_fd_sc_hd__tapvpwrvgnd_1
XANTENNA_mux_top_ipin_0.mux_l1_in_2__A1 chanx_left_in[4] VGND VGND VPWR VPWR sky130_fd_sc_hd__diode_2
XFILLER_30_190 VGND VGND VPWR VPWR sky130_fd_sc_hd__decap_12
XFILLER_26_32 VGND VGND VPWR VPWR sky130_fd_sc_hd__decap_12
XFILLER_9_117 VGND VGND VPWR VPWR sky130_fd_sc_hd__decap_4
XFILLER_9_128 VGND VGND VPWR VPWR sky130_fd_sc_hd__fill_2
XFILLER_13_135 VGND VGND VPWR VPWR sky130_fd_sc_hd__decap_3
XFILLER_3_58 VGND VGND VPWR VPWR sky130_fd_sc_hd__decap_3
XFILLER_12_23 VGND VGND VPWR VPWR sky130_fd_sc_hd__decap_8
XANTENNA_mux_top_ipin_0.mux_l2_in_1__A1 mux_top_ipin_0.mux_l1_in_2_/X VGND VGND VPWR
+ VPWR sky130_fd_sc_hd__diode_2
XFILLER_33_208 VGND VGND VPWR VPWR sky130_fd_sc_hd__fill_2
XFILLER_18_227 VGND VGND VPWR VPWR sky130_fd_sc_hd__decap_12
XFILLER_5_175 VGND VGND VPWR VPWR sky130_fd_sc_hd__fill_2
X_64_ SC_IN_BOT SC_IN_TOP VGND VGND VPWR VPWR sky130_fd_sc_hd__buf_2
XFILLER_32_296 VGND VGND VPWR VPWR sky130_fd_sc_hd__decap_3
XANTENNA_mux_top_ipin_2.mux_l1_in_2__S mux_top_ipin_2.mux_l1_in_2_/S VGND VGND VPWR
+ VPWR sky130_fd_sc_hd__diode_2
Xmux_top_ipin_4.sky130_fd_sc_hd__buf_4_0_ mux_top_ipin_4.mux_l4_in_0_/X bottom_grid_pin_8_
+ VGND VGND VPWR VPWR sky130_fd_sc_hd__buf_4
XFILLER_0_26 VGND VGND VPWR VPWR sky130_fd_sc_hd__decap_3
XFILLER_14_263 VGND VGND VPWR VPWR sky130_fd_sc_hd__decap_12
XFILLER_9_79 VGND VGND VPWR VPWR sky130_fd_sc_hd__fill_2
X_47_ top_width_0_height_0__pin_8_ gfpga_pad_EMBEDDED_IO_SOC_OUT[4] VGND VGND VPWR
+ VPWR sky130_fd_sc_hd__buf_2
XANTENNA_mux_top_ipin_0.mux_l3_in_0__A1 mux_top_ipin_0.mux_l2_in_0_/X VGND VGND VPWR
+ VPWR sky130_fd_sc_hd__diode_2
XFILLER_20_288 VGND VGND VPWR VPWR sky130_fd_sc_hd__decap_8
XFILLER_18_11 VGND VGND VPWR VPWR sky130_fd_sc_hd__fill_1
XFILLER_18_44 VGND VGND VPWR VPWR sky130_fd_sc_hd__decap_6
XFILLER_34_32 VGND VGND VPWR VPWR sky130_fd_sc_hd__decap_12
XFILLER_7_204 VGND VGND VPWR VPWR sky130_fd_sc_hd__decap_12
XFILLER_6_292 VGND VGND VPWR VPWR sky130_fd_sc_hd__decap_6
XANTENNA_mem_top_ipin_0.sky130_fd_sc_hd__dfxbp_1_2__CLK clkbuf_2_0_0_prog_clk/X VGND
+ VGND VPWR VPWR sky130_fd_sc_hd__diode_2
XANTENNA_mux_top_ipin_1.mux_l2_in_2__S mux_top_ipin_1.mux_l2_in_2_/S VGND VGND VPWR
+ VPWR sky130_fd_sc_hd__diode_2
XANTENNA_clkbuf_1_0_0_prog_clk_A clkbuf_0_prog_clk/X VGND VGND VPWR VPWR sky130_fd_sc_hd__diode_2
XFILLER_20_23 VGND VGND VPWR VPWR sky130_fd_sc_hd__decap_8
XFILLER_20_89 VGND VGND VPWR VPWR sky130_fd_sc_hd__fill_1
XFILLER_29_98 VGND VGND VPWR VPWR sky130_fd_sc_hd__decap_12
XFILLER_28_141 VGND VGND VPWR VPWR sky130_fd_sc_hd__decap_12
XFILLER_34_166 VGND VGND VPWR VPWR sky130_fd_sc_hd__decap_12
XFILLER_19_196 VGND VGND VPWR VPWR sky130_fd_sc_hd__decap_12
XANTENNA_mux_top_ipin_5.mux_l3_in_0__S mux_top_ipin_5.mux_l3_in_1_/S VGND VGND VPWR
+ VPWR sky130_fd_sc_hd__diode_2
XFILLER_15_56 VGND VGND VPWR VPWR sky130_fd_sc_hd__decap_4
XFILLER_15_89 VGND VGND VPWR VPWR sky130_fd_sc_hd__fill_2
XANTENNA_mem_top_ipin_3.sky130_fd_sc_hd__dfxbp_1_3__CLK clkbuf_2_3_0_prog_clk/X VGND
+ VGND VPWR VPWR sky130_fd_sc_hd__diode_2
XFILLER_31_147 VGND VGND VPWR VPWR sky130_fd_sc_hd__decap_12
XPHY_150 VGND VPWR sky130_fd_sc_hd__tapvpwrvgnd_1
XPHY_161 VGND VPWR sky130_fd_sc_hd__tapvpwrvgnd_1
XPHY_172 VGND VPWR sky130_fd_sc_hd__tapvpwrvgnd_1
XPHY_183 VGND VPWR sky130_fd_sc_hd__tapvpwrvgnd_1
XPHY_194 VGND VPWR sky130_fd_sc_hd__tapvpwrvgnd_1
Xclkbuf_2_1_0_prog_clk clkbuf_2_1_0_prog_clk/A clkbuf_2_1_0_prog_clk/X VGND VGND VPWR
+ VPWR sky130_fd_sc_hd__clkbuf_1
XFILLER_26_44 VGND VGND VPWR VPWR sky130_fd_sc_hd__decap_12
XFILLER_13_114 VGND VGND VPWR VPWR sky130_fd_sc_hd__decap_8
XFILLER_13_169 VGND VGND VPWR VPWR sky130_fd_sc_hd__decap_3
XFILLER_3_48 VGND VGND VPWR VPWR sky130_fd_sc_hd__decap_4
XFILLER_12_191 VGND VGND VPWR VPWR sky130_fd_sc_hd__fill_2
XANTENNA_mux_top_ipin_4.mux_l4_in_0__S mux_top_ipin_4.mux_l4_in_0_/S VGND VGND VPWR
+ VPWR sky130_fd_sc_hd__diode_2
XFILLER_35_261 VGND VGND VPWR VPWR sky130_fd_sc_hd__decap_12
XFILLER_10_106 VGND VGND VPWR VPWR sky130_fd_sc_hd__decap_4
XFILLER_5_7 VGND VGND VPWR VPWR sky130_fd_sc_hd__fill_2
XFILLER_18_239 VGND VGND VPWR VPWR sky130_fd_sc_hd__decap_12
XFILLER_5_110 VGND VGND VPWR VPWR sky130_fd_sc_hd__decap_12
X_63_ gfpga_pad_EMBEDDED_IO_SOC_IN[4] top_width_0_height_0__pin_9_upper VGND VGND
+ VPWR VPWR sky130_fd_sc_hd__buf_2
XFILLER_32_231 VGND VGND VPWR VPWR sky130_fd_sc_hd__decap_12
XFILLER_17_283 VGND VGND VPWR VPWR sky130_fd_sc_hd__decap_12
XFILLER_4_91 VGND VGND VPWR VPWR sky130_fd_sc_hd__fill_1
XFILLER_15_209 VGND VGND VPWR VPWR sky130_fd_sc_hd__decap_12
XFILLER_23_220 VGND VGND VPWR VPWR sky130_fd_sc_hd__decap_12
XANTENNA__12__A chanx_right_in[7] VGND VGND VPWR VPWR sky130_fd_sc_hd__diode_2
XANTENNA_mux_top_ipin_4.mux_l1_in_1__A0 chanx_right_in[2] VGND VGND VPWR VPWR sky130_fd_sc_hd__diode_2
XFILLER_29_3 VGND VGND VPWR VPWR sky130_fd_sc_hd__decap_12
X_46_ top_width_0_height_0__pin_10_ gfpga_pad_EMBEDDED_IO_SOC_OUT[5] VGND VGND VPWR
+ VPWR sky130_fd_sc_hd__buf_2
Xltile_mode_io__2.ltile_physical_iopad_0.EMBEDDED_IO_mem.sky130_fd_sc_hd__dfxbp_1_0_
+ mux_top_ipin_5.mux_l4_in_0_/S _43_/A ltile_mode_io__2.ltile_physical_iopad_0.EMBEDDED_IO_mem.sky130_fd_sc_hd__dfxbp_1_0_/Q_N
+ clkbuf_2_2_0_prog_clk/X VGND VGND VPWR VPWR sky130_fd_sc_hd__dfxbp_1
XFILLER_18_23 VGND VGND VPWR VPWR sky130_fd_sc_hd__fill_2
XFILLER_34_44 VGND VGND VPWR VPWR sky130_fd_sc_hd__decap_12
XFILLER_7_216 VGND VGND VPWR VPWR sky130_fd_sc_hd__decap_12
XFILLER_11_245 VGND VGND VPWR VPWR sky130_fd_sc_hd__decap_12
X_29_ chanx_left_in[10] chanx_right_out[10] VGND VGND VPWR VPWR sky130_fd_sc_hd__buf_2
XANTENNA_mux_top_ipin_4.mux_l2_in_0__A0 mux_top_ipin_4.mux_l1_in_1_/X VGND VGND VPWR
+ VPWR sky130_fd_sc_hd__diode_2
XFILLER_20_7 VGND VGND VPWR VPWR sky130_fd_sc_hd__decap_4
XFILLER_34_178 VGND VGND VPWR VPWR sky130_fd_sc_hd__decap_12
XFILLER_25_123 VGND VGND VPWR VPWR sky130_fd_sc_hd__decap_12
XANTENNA_mux_top_ipin_2.mux_l2_in_2__A0 chanx_left_in[18] VGND VGND VPWR VPWR sky130_fd_sc_hd__diode_2
XANTENNA__20__A chanx_left_in[19] VGND VGND VPWR VPWR sky130_fd_sc_hd__diode_2
XFILLER_0_288 VGND VGND VPWR VPWR sky130_fd_sc_hd__decap_8
XFILLER_0_244 VGND VGND VPWR VPWR sky130_fd_sc_hd__decap_4
XFILLER_16_101 VGND VGND VPWR VPWR sky130_fd_sc_hd__decap_12
XFILLER_16_189 VGND VGND VPWR VPWR sky130_fd_sc_hd__decap_12
XFILLER_31_159 VGND VGND VPWR VPWR sky130_fd_sc_hd__decap_12
XPHY_140 VGND VPWR sky130_fd_sc_hd__tapvpwrvgnd_1
XPHY_151 VGND VPWR sky130_fd_sc_hd__tapvpwrvgnd_1
XPHY_162 VGND VPWR sky130_fd_sc_hd__tapvpwrvgnd_1
XPHY_173 VGND VPWR sky130_fd_sc_hd__tapvpwrvgnd_1
XPHY_184 VGND VPWR sky130_fd_sc_hd__tapvpwrvgnd_1
XPHY_195 VGND VPWR sky130_fd_sc_hd__tapvpwrvgnd_1
XFILLER_7_91 VGND VGND VPWR VPWR sky130_fd_sc_hd__fill_2
XFILLER_26_56 VGND VGND VPWR VPWR sky130_fd_sc_hd__decap_12
XANTENNA__15__A chanx_right_in[4] VGND VGND VPWR VPWR sky130_fd_sc_hd__diode_2
XFILLER_13_159 VGND VGND VPWR VPWR sky130_fd_sc_hd__decap_4
XFILLER_3_27 VGND VGND VPWR VPWR sky130_fd_sc_hd__fill_2
Xmux_top_ipin_2.mux_l2_in_3_ _08_/HI chanx_right_in[18] mux_top_ipin_2.mux_l2_in_3_/S
+ mux_top_ipin_2.mux_l2_in_3_/X VGND VGND VPWR VPWR sky130_fd_sc_hd__mux2_1
XFILLER_29_281 VGND VGND VPWR VPWR sky130_fd_sc_hd__decap_12
XFILLER_8_141 VGND VGND VPWR VPWR sky130_fd_sc_hd__decap_12
XFILLER_8_163 VGND VGND VPWR VPWR sky130_fd_sc_hd__decap_12
XANTENNA_mem_top_ipin_3.sky130_fd_sc_hd__dfxbp_1_0__D mux_top_ipin_2.mux_l4_in_0_/S
+ VGND VGND VPWR VPWR sky130_fd_sc_hd__diode_2
XANTENNA_mux_top_ipin_2.mux_l3_in_1__A0 mux_top_ipin_2.mux_l2_in_3_/X VGND VGND VPWR
+ VPWR sky130_fd_sc_hd__diode_2
XFILLER_35_273 VGND VGND VPWR VPWR sky130_fd_sc_hd__decap_6
XFILLER_12_69 VGND VGND VPWR VPWR sky130_fd_sc_hd__decap_12
XFILLER_26_251 VGND VGND VPWR VPWR sky130_fd_sc_hd__decap_12
X_62_ gfpga_pad_EMBEDDED_IO_SOC_IN[4] top_width_0_height_0__pin_9_lower VGND VGND
+ VPWR VPWR sky130_fd_sc_hd__buf_2
XFILLER_32_276 VGND VGND VPWR VPWR sky130_fd_sc_hd__decap_12
XFILLER_32_243 VGND VGND VPWR VPWR sky130_fd_sc_hd__decap_12
XFILLER_17_295 VGND VGND VPWR VPWR sky130_fd_sc_hd__decap_4
XANTENNA_mux_top_ipin_3.mux_l1_in_0__S mux_top_ipin_3.mux_l1_in_2_/S VGND VGND VPWR
+ VPWR sky130_fd_sc_hd__diode_2
XFILLER_23_232 VGND VGND VPWR VPWR sky130_fd_sc_hd__decap_12
XFILLER_2_158 VGND VGND VPWR VPWR sky130_fd_sc_hd__decap_12
XFILLER_2_147 VGND VGND VPWR VPWR sky130_fd_sc_hd__decap_3
XANTENNA_mux_top_ipin_4.mux_l1_in_1__A1 chanx_left_in[2] VGND VGND VPWR VPWR sky130_fd_sc_hd__diode_2
XFILLER_14_298 VGND VGND VPWR VPWR sky130_fd_sc_hd__fill_1
XANTENNA_mux_top_ipin_2.mux_l4_in_0__A0 mux_top_ipin_2.mux_l3_in_1_/X VGND VGND VPWR
+ VPWR sky130_fd_sc_hd__diode_2
XANTENNA_ltile_mode_io__4.ltile_physical_iopad_0.EMBEDDED_IO_mem.sky130_fd_sc_hd__dfxbp_1_0__D
+ mux_top_ipin_5.mux_l4_in_0_/S VGND VGND VPWR VPWR sky130_fd_sc_hd__diode_2
X_45_ _45_/A gfpga_pad_EMBEDDED_IO_SOC_DIR[0] VGND VGND VPWR VPWR sky130_fd_sc_hd__buf_2
Xmux_top_ipin_2.mux_l4_in_0_ mux_top_ipin_2.mux_l3_in_1_/X mux_top_ipin_2.mux_l3_in_0_/X
+ mux_top_ipin_2.mux_l4_in_0_/S mux_top_ipin_2.mux_l4_in_0_/X VGND VGND VPWR VPWR
+ sky130_fd_sc_hd__mux2_1
XFILLER_20_202 VGND VGND VPWR VPWR sky130_fd_sc_hd__decap_12
XFILLER_34_56 VGND VGND VPWR VPWR sky130_fd_sc_hd__decap_12
XFILLER_11_202 VGND VGND VPWR VPWR sky130_fd_sc_hd__fill_2
XFILLER_11_257 VGND VGND VPWR VPWR sky130_fd_sc_hd__decap_12
XFILLER_7_228 VGND VGND VPWR VPWR sky130_fd_sc_hd__decap_12
XANTENNA__23__A chanx_left_in[16] VGND VGND VPWR VPWR sky130_fd_sc_hd__diode_2
XFILLER_11_279 VGND VGND VPWR VPWR sky130_fd_sc_hd__fill_2
XFILLER_1_60 VGND VGND VPWR VPWR sky130_fd_sc_hd__fill_1
X_28_ chanx_left_in[11] chanx_right_out[11] VGND VGND VPWR VPWR sky130_fd_sc_hd__buf_2
XANTENNA_mux_top_ipin_4.mux_l2_in_0__A1 mux_top_ipin_4.mux_l1_in_0_/X VGND VGND VPWR
+ VPWR sky130_fd_sc_hd__diode_2
XANTENNA_mux_top_ipin_2.mux_l2_in_0__S mux_top_ipin_2.mux_l2_in_3_/S VGND VGND VPWR
+ VPWR sky130_fd_sc_hd__diode_2
XFILLER_20_36 VGND VGND VPWR VPWR sky130_fd_sc_hd__fill_1
XFILLER_20_69 VGND VGND VPWR VPWR sky130_fd_sc_hd__fill_2
XFILLER_28_154 VGND VGND VPWR VPWR sky130_fd_sc_hd__decap_12
XANTENNA__18__A chanx_right_in[1] VGND VGND VPWR VPWR sky130_fd_sc_hd__diode_2
XFILLER_3_220 VGND VGND VPWR VPWR sky130_fd_sc_hd__decap_12
XFILLER_10_91 VGND VGND VPWR VPWR sky130_fd_sc_hd__fill_1
XFILLER_13_7 VGND VGND VPWR VPWR sky130_fd_sc_hd__fill_2
Xmux_top_ipin_2.mux_l3_in_1_ mux_top_ipin_2.mux_l2_in_3_/X mux_top_ipin_2.mux_l2_in_2_/X
+ mux_top_ipin_2.mux_l3_in_1_/S mux_top_ipin_2.mux_l3_in_1_/X VGND VGND VPWR VPWR
+ sky130_fd_sc_hd__mux2_1
XFILLER_19_132 VGND VGND VPWR VPWR sky130_fd_sc_hd__fill_2
XANTENNA_mem_top_ipin_3.sky130_fd_sc_hd__dfxbp_1_3__D mux_top_ipin_3.mux_l3_in_0_/S
+ VGND VGND VPWR VPWR sky130_fd_sc_hd__diode_2
XFILLER_25_135 VGND VGND VPWR VPWR sky130_fd_sc_hd__decap_12
XFILLER_15_36 VGND VGND VPWR VPWR sky130_fd_sc_hd__fill_2
XANTENNA_mux_top_ipin_2.mux_l2_in_2__A1 chanx_right_in[12] VGND VGND VPWR VPWR sky130_fd_sc_hd__diode_2
XPHY_130 VGND VPWR sky130_fd_sc_hd__tapvpwrvgnd_1
XPHY_141 VGND VPWR sky130_fd_sc_hd__tapvpwrvgnd_1
XFILLER_16_113 VGND VGND VPWR VPWR sky130_fd_sc_hd__fill_2
XFILLER_16_168 VGND VGND VPWR VPWR sky130_fd_sc_hd__decap_8
XPHY_152 VGND VPWR sky130_fd_sc_hd__tapvpwrvgnd_1
XFILLER_24_190 VGND VGND VPWR VPWR sky130_fd_sc_hd__decap_12
XPHY_196 VGND VPWR sky130_fd_sc_hd__tapvpwrvgnd_1
XPHY_163 VGND VPWR sky130_fd_sc_hd__tapvpwrvgnd_1
XPHY_174 VGND VPWR sky130_fd_sc_hd__tapvpwrvgnd_1
XPHY_185 VGND VPWR sky130_fd_sc_hd__tapvpwrvgnd_1
XFILLER_22_105 VGND VGND VPWR VPWR sky130_fd_sc_hd__decap_6
XANTENNA_mux_top_ipin_1.mux_l3_in_0__S mux_top_ipin_1.mux_l3_in_1_/S VGND VGND VPWR
+ VPWR sky130_fd_sc_hd__diode_2
XFILLER_26_68 VGND VGND VPWR VPWR sky130_fd_sc_hd__decap_12
XANTENNA__31__A chanx_left_in[8] VGND VGND VPWR VPWR sky130_fd_sc_hd__diode_2
Xmux_top_ipin_2.mux_l2_in_2_ chanx_left_in[18] chanx_right_in[12] mux_top_ipin_2.mux_l2_in_3_/S
+ mux_top_ipin_2.mux_l2_in_2_/X VGND VGND VPWR VPWR sky130_fd_sc_hd__mux2_1
XFILLER_29_293 VGND VGND VPWR VPWR sky130_fd_sc_hd__decap_6
XFILLER_8_175 VGND VGND VPWR VPWR sky130_fd_sc_hd__decap_6
XFILLER_27_208 VGND VGND VPWR VPWR sky130_fd_sc_hd__decap_12
XANTENNA_mux_top_ipin_2.mux_l3_in_1__A1 mux_top_ipin_2.mux_l2_in_2_/X VGND VGND VPWR
+ VPWR sky130_fd_sc_hd__diode_2
XFILLER_35_230 VGND VGND VPWR VPWR sky130_fd_sc_hd__decap_12
XFILLER_26_296 VGND VGND VPWR VPWR sky130_fd_sc_hd__decap_3
XFILLER_26_263 VGND VGND VPWR VPWR sky130_fd_sc_hd__decap_12
XANTENNA__26__A chanx_left_in[13] VGND VGND VPWR VPWR sky130_fd_sc_hd__diode_2
XFILLER_5_123 VGND VGND VPWR VPWR sky130_fd_sc_hd__decap_8
X_61_ gfpga_pad_EMBEDDED_IO_SOC_IN[3] top_width_0_height_0__pin_7_upper VGND VGND
+ VPWR VPWR sky130_fd_sc_hd__buf_2
XFILLER_32_288 VGND VGND VPWR VPWR sky130_fd_sc_hd__decap_8
XFILLER_32_255 VGND VGND VPWR VPWR sky130_fd_sc_hd__decap_12
XFILLER_4_93 VGND VGND VPWR VPWR sky130_fd_sc_hd__decap_12
XFILLER_4_71 VGND VGND VPWR VPWR sky130_fd_sc_hd__decap_12
Xltile_mode_io__4.ltile_physical_iopad_0.EMBEDDED_IO_mem.sky130_fd_sc_hd__dfxbp_1_0_
+ mux_top_ipin_5.mux_l4_in_0_/S _41_/A ltile_mode_io__4.ltile_physical_iopad_0.EMBEDDED_IO_mem.sky130_fd_sc_hd__dfxbp_1_0_/Q_N
+ clkbuf_2_2_0_prog_clk/X VGND VGND VPWR VPWR sky130_fd_sc_hd__dfxbp_1
XANTENNA_mux_top_ipin_2.mux_l2_in_3__S mux_top_ipin_2.mux_l2_in_3_/S VGND VGND VPWR
+ VPWR sky130_fd_sc_hd__diode_2
XANTENNA_mux_top_ipin_0.mux_l4_in_0__S mux_top_ipin_0.mux_l4_in_0_/S VGND VGND VPWR
+ VPWR sky130_fd_sc_hd__diode_2
XFILLER_9_27 VGND VGND VPWR VPWR sky130_fd_sc_hd__decap_4
XANTENNA_mux_top_ipin_2.mux_l4_in_0__A1 mux_top_ipin_2.mux_l3_in_0_/X VGND VGND VPWR
+ VPWR sky130_fd_sc_hd__diode_2
XFILLER_13_91 VGND VGND VPWR VPWR sky130_fd_sc_hd__fill_2
XFILLER_1_181 VGND VGND VPWR VPWR sky130_fd_sc_hd__fill_2
X_44_ _44_/A gfpga_pad_EMBEDDED_IO_SOC_DIR[1] VGND VGND VPWR VPWR sky130_fd_sc_hd__buf_2
XFILLER_18_36 VGND VGND VPWR VPWR sky130_fd_sc_hd__fill_1
XFILLER_34_68 VGND VGND VPWR VPWR sky130_fd_sc_hd__decap_12
XFILLER_11_269 VGND VGND VPWR VPWR sky130_fd_sc_hd__decap_6
XANTENNA_mem_top_ipin_1.sky130_fd_sc_hd__dfxbp_1_1__CLK clkbuf_2_0_0_prog_clk/X VGND
+ VGND VPWR VPWR sky130_fd_sc_hd__diode_2
XFILLER_6_251 VGND VGND VPWR VPWR sky130_fd_sc_hd__decap_12
XFILLER_10_280 VGND VGND VPWR VPWR sky130_fd_sc_hd__decap_12
XFILLER_34_3 VGND VGND VPWR VPWR sky130_fd_sc_hd__decap_12
X_27_ chanx_left_in[12] chanx_right_out[12] VGND VGND VPWR VPWR sky130_fd_sc_hd__buf_2
XFILLER_28_166 VGND VGND VPWR VPWR sky130_fd_sc_hd__decap_12
XANTENNA__34__A chanx_left_in[5] VGND VGND VPWR VPWR sky130_fd_sc_hd__diode_2
XFILLER_3_287 VGND VGND VPWR VPWR sky130_fd_sc_hd__decap_12
XFILLER_3_232 VGND VGND VPWR VPWR sky130_fd_sc_hd__decap_12
Xmux_top_ipin_2.mux_l3_in_0_ mux_top_ipin_2.mux_l2_in_1_/X mux_top_ipin_2.mux_l2_in_0_/X
+ mux_top_ipin_2.mux_l3_in_1_/S mux_top_ipin_2.mux_l3_in_0_/X VGND VGND VPWR VPWR
+ sky130_fd_sc_hd__mux2_1
XFILLER_19_90 VGND VGND VPWR VPWR sky130_fd_sc_hd__decap_3
XFILLER_19_111 VGND VGND VPWR VPWR sky130_fd_sc_hd__fill_1
XANTENNA_mem_top_ipin_4.sky130_fd_sc_hd__dfxbp_1_2__CLK clkbuf_2_3_0_prog_clk/X VGND
+ VGND VPWR VPWR sky130_fd_sc_hd__diode_2
XFILLER_15_15 VGND VGND VPWR VPWR sky130_fd_sc_hd__fill_2
XFILLER_25_147 VGND VGND VPWR VPWR sky130_fd_sc_hd__decap_12
XANTENNA__29__A chanx_left_in[10] VGND VGND VPWR VPWR sky130_fd_sc_hd__diode_2
XPHY_120 VGND VPWR sky130_fd_sc_hd__tapvpwrvgnd_1
XPHY_131 VGND VPWR sky130_fd_sc_hd__tapvpwrvgnd_1
XPHY_142 VGND VPWR sky130_fd_sc_hd__tapvpwrvgnd_1
XFILLER_16_125 VGND VGND VPWR VPWR sky130_fd_sc_hd__decap_3
XPHY_153 VGND VPWR sky130_fd_sc_hd__tapvpwrvgnd_1
XPHY_164 VGND VPWR sky130_fd_sc_hd__tapvpwrvgnd_1
XPHY_175 VGND VPWR sky130_fd_sc_hd__tapvpwrvgnd_1
XPHY_197 VGND VPWR sky130_fd_sc_hd__tapvpwrvgnd_1
XPHY_186 VGND VPWR sky130_fd_sc_hd__tapvpwrvgnd_1
XPHY_0 VGND VGND VPWR VPWR sky130_fd_sc_hd__decap_3
XFILLER_7_60 VGND VGND VPWR VPWR sky130_fd_sc_hd__fill_1
Xmux_top_ipin_2.mux_l2_in_1_ chanx_left_in[12] mux_top_ipin_2.mux_l1_in_2_/X mux_top_ipin_2.mux_l2_in_3_/S
+ mux_top_ipin_2.mux_l2_in_1_/X VGND VGND VPWR VPWR sky130_fd_sc_hd__mux2_1
XFILLER_8_154 VGND VGND VPWR VPWR sky130_fd_sc_hd__decap_6
XFILLER_12_150 VGND VGND VPWR VPWR sky130_fd_sc_hd__decap_3
XFILLER_12_172 VGND VGND VPWR VPWR sky130_fd_sc_hd__decap_4
XFILLER_16_80 VGND VGND VPWR VPWR sky130_fd_sc_hd__decap_12
XFILLER_35_242 VGND VGND VPWR VPWR sky130_fd_sc_hd__decap_6
XANTENNA__42__A _42_/A VGND VGND VPWR VPWR sky130_fd_sc_hd__diode_2
Xmem_top_ipin_0.sky130_fd_sc_hd__dfxbp_1_3_ mux_top_ipin_0.mux_l3_in_1_/S mux_top_ipin_0.mux_l4_in_0_/S
+ mem_top_ipin_0.sky130_fd_sc_hd__dfxbp_1_3_/Q_N clkbuf_2_0_0_prog_clk/X VGND VGND
+ VPWR VPWR sky130_fd_sc_hd__dfxbp_1
XFILLER_5_179 VGND VGND VPWR VPWR sky130_fd_sc_hd__fill_2
Xclkbuf_2_0_0_prog_clk clkbuf_2_1_0_prog_clk/A clkbuf_2_0_0_prog_clk/X VGND VGND VPWR
+ VPWR sky130_fd_sc_hd__clkbuf_1
X_60_ gfpga_pad_EMBEDDED_IO_SOC_IN[3] top_width_0_height_0__pin_7_lower VGND VGND
+ VPWR VPWR sky130_fd_sc_hd__buf_2
XFILLER_32_212 VGND VGND VPWR VPWR sky130_fd_sc_hd__fill_2
XFILLER_17_231 VGND VGND VPWR VPWR sky130_fd_sc_hd__decap_12
XFILLER_32_267 VGND VGND VPWR VPWR sky130_fd_sc_hd__decap_8
XFILLER_4_83 VGND VGND VPWR VPWR sky130_fd_sc_hd__decap_8
Xmux_top_ipin_2.mux_l1_in_2_ chanx_right_in[6] chanx_left_in[6] mux_top_ipin_2.mux_l1_in_2_/S
+ mux_top_ipin_2.mux_l1_in_2_/X VGND VGND VPWR VPWR sky130_fd_sc_hd__mux2_1
XFILLER_23_15 VGND VGND VPWR VPWR sky130_fd_sc_hd__decap_12
XFILLER_23_59 VGND VGND VPWR VPWR sky130_fd_sc_hd__fill_2
XFILLER_23_245 VGND VGND VPWR VPWR sky130_fd_sc_hd__decap_12
XFILLER_3_7 VGND VGND VPWR VPWR sky130_fd_sc_hd__fill_2
XFILLER_2_127 VGND VGND VPWR VPWR sky130_fd_sc_hd__decap_12
XANTENNA__37__A chanx_left_in[2] VGND VGND VPWR VPWR sky130_fd_sc_hd__diode_2