* NGSPICE file created from cbx_1__0_.ext - technology: EFS8A

* Black-box entry subcircuit for scs8hd_fill_2 abstract view
.subckt scs8hd_fill_2 vpwr vgnd
.ends

* Black-box entry subcircuit for scs8hd_decap_8 abstract view
.subckt scs8hd_decap_8 vgnd vpwr
.ends

* Black-box entry subcircuit for scs8hd_fill_1 abstract view
.subckt scs8hd_fill_1 vgnd vpwr
.ends

* Black-box entry subcircuit for scs8hd_diode_2 abstract view
.subckt scs8hd_diode_2 DIODE vgnd vpwr
.ends

* Black-box entry subcircuit for scs8hd_ebufn_2 abstract view
.subckt scs8hd_ebufn_2 A TEB Z vgnd vpwr
.ends

* Black-box entry subcircuit for scs8hd_lpflow_inputisolatch_1 abstract view
.subckt scs8hd_lpflow_inputisolatch_1 D Q SLEEPB vgnd vpwr
.ends

* Black-box entry subcircuit for scs8hd_decap_3 abstract view
.subckt scs8hd_decap_3 vgnd vpwr
.ends

* Black-box entry subcircuit for scs8hd_decap_4 abstract view
.subckt scs8hd_decap_4 vgnd vpwr
.ends

* Black-box entry subcircuit for scs8hd_buf_2 abstract view
.subckt scs8hd_buf_2 A X vgnd vpwr
.ends

* Black-box entry subcircuit for scs8hd_buf_1 abstract view
.subckt scs8hd_buf_1 A X vgnd vpwr
.ends

* Black-box entry subcircuit for scs8hd_decap_6 abstract view
.subckt scs8hd_decap_6 vgnd vpwr
.ends

* Black-box entry subcircuit for scs8hd_or2_4 abstract view
.subckt scs8hd_or2_4 A B X vgnd vpwr
.ends

* Black-box entry subcircuit for scs8hd_decap_12 abstract view
.subckt scs8hd_decap_12 vgnd vpwr
.ends

* Black-box entry subcircuit for scs8hd_inv_1 abstract view
.subckt scs8hd_inv_1 A Y vgnd vpwr
.ends

* Black-box entry subcircuit for scs8hd_tapvpwrvgnd_1 abstract view
.subckt scs8hd_tapvpwrvgnd_1 vgnd vpwr
.ends

* Black-box entry subcircuit for scs8hd_or4_4 abstract view
.subckt scs8hd_or4_4 A B C D X vgnd vpwr
.ends

* Black-box entry subcircuit for scs8hd_conb_1 abstract view
.subckt scs8hd_conb_1 HI LO vgnd vpwr
.ends

* Black-box entry subcircuit for scs8hd_or3_4 abstract view
.subckt scs8hd_or3_4 A B C X vgnd vpwr
.ends

* Black-box entry subcircuit for scs8hd_nor2_4 abstract view
.subckt scs8hd_nor2_4 A B Y vgnd vpwr
.ends

* Black-box entry subcircuit for scs8hd_nand2_4 abstract view
.subckt scs8hd_nand2_4 A B Y vgnd vpwr
.ends

* Black-box entry subcircuit for scs8hd_inv_8 abstract view
.subckt scs8hd_inv_8 A Y vgnd vpwr
.ends

* Black-box entry subcircuit for scs8hd_nor3_4 abstract view
.subckt scs8hd_nor3_4 A B C Y vgnd vpwr
.ends

.subckt cbx_1__0_ address[0] address[1] address[2] address[3] address[4] address[5]
+ address[6] bottom_grid_pin_0_ bottom_grid_pin_10_ bottom_grid_pin_12_ bottom_grid_pin_14_
+ bottom_grid_pin_2_ bottom_grid_pin_4_ bottom_grid_pin_6_ bottom_grid_pin_8_ chanx_left_in[0]
+ chanx_left_in[1] chanx_left_in[2] chanx_left_in[3] chanx_left_in[4] chanx_left_in[5]
+ chanx_left_in[6] chanx_left_in[7] chanx_left_in[8] chanx_left_out[0] chanx_left_out[1]
+ chanx_left_out[2] chanx_left_out[3] chanx_left_out[4] chanx_left_out[5] chanx_left_out[6]
+ chanx_left_out[7] chanx_left_out[8] chanx_right_in[0] chanx_right_in[1] chanx_right_in[2]
+ chanx_right_in[3] chanx_right_in[4] chanx_right_in[5] chanx_right_in[6] chanx_right_in[7]
+ chanx_right_in[8] chanx_right_out[0] chanx_right_out[1] chanx_right_out[2] chanx_right_out[3]
+ chanx_right_out[4] chanx_right_out[5] chanx_right_out[6] chanx_right_out[7] chanx_right_out[8]
+ data_in enable top_grid_pin_14_ top_grid_pin_2_ top_grid_pin_6_ vpwr vgnd
XFILLER_10_306 vpwr vgnd scs8hd_fill_2
XFILLER_10_328 vgnd vpwr scs8hd_decap_8
XFILLER_7_7 vgnd vpwr scs8hd_fill_1
XFILLER_18_406 vgnd vpwr scs8hd_fill_1
XANTENNA_mux_top_ipin_3.mux_l1_in_1_.TGATE_2_.scs8hd_ebufn_2_A mux_top_ipin_3.INVTX1_5_.scs8hd_inv_1/Y
+ vgnd vpwr scs8hd_diode_2
Xmux_top_ipin_7.mux_l1_in_0_.TGATE_0_.scs8hd_ebufn_2 mux_top_ipin_7.INVTX1_0_.scs8hd_inv_1/Y
+ mem_top_ipin_7.LATCH_0_.latch/Q mux_top_ipin_7.mux_l2_in_0_.TGATE_0_.scs8hd_ebufn_2/A
+ vgnd vpwr scs8hd_ebufn_2
XFILLER_3_12 vpwr vgnd scs8hd_fill_2
XFILLER_5_354 vpwr vgnd scs8hd_fill_2
XFILLER_5_376 vpwr vgnd scs8hd_fill_2
XFILLER_3_89 vpwr vgnd scs8hd_fill_2
Xmem_bottom_ipin_2.LATCH_1_.latch data_in mem_bottom_ipin_2.LATCH_1_.latch/Q _181_/Y
+ vgnd vpwr scs8hd_lpflow_inputisolatch_1
XFILLER_6_129 vgnd vpwr scs8hd_decap_3
XFILLER_10_103 vpwr vgnd scs8hd_fill_2
XFILLER_10_147 vgnd vpwr scs8hd_decap_4
XFILLER_10_169 vpwr vgnd scs8hd_fill_2
XFILLER_12_10 vpwr vgnd scs8hd_fill_2
XFILLER_2_346 vgnd vpwr scs8hd_decap_8
XFILLER_2_335 vgnd vpwr scs8hd_fill_1
XFILLER_2_313 vgnd vpwr scs8hd_fill_1
XANTENNA_mem_top_ipin_3.LATCH_3_.latch_SLEEPB _126_/Y vgnd vpwr scs8hd_diode_2
XANTENNA__124__A _070_/X vgnd vpwr scs8hd_diode_2
Xmux_top_ipin_4.mux_l2_in_0_.TGATE_0_.scs8hd_ebufn_2 mux_top_ipin_4.mux_l1_in_0_.TGATE_0_.scs8hd_ebufn_2/Z
+ mem_top_ipin_4.LATCH_3_.latch/Q mux_top_ipin_4.tap_buf4_0_.scs8hd_inv_1/A vgnd vpwr
+ scs8hd_ebufn_2
XANTENNA_mux_bottom_ipin_1.mux_l1_in_0_.TGATE_1_.scs8hd_ebufn_2_TEB _166_/Y vgnd vpwr
+ scs8hd_diode_2
XANTENNA_mux_top_ipin_6.tap_buf4_0_.scs8hd_inv_1_A mux_top_ipin_6.tap_buf4_0_.scs8hd_inv_1/A
+ vgnd vpwr scs8hd_diode_2
X_200_ chanx_right_in[2] chanx_left_out[2] vgnd vpwr scs8hd_buf_2
XFILLER_15_228 vpwr vgnd scs8hd_fill_2
XFILLER_15_217 vpwr vgnd scs8hd_fill_2
XFILLER_15_206 vgnd vpwr scs8hd_decap_8
XANTENNA__209__A chanx_left_in[2] vgnd vpwr scs8hd_diode_2
X_131_ _131_/A _131_/X vgnd vpwr scs8hd_buf_1
XFILLER_7_405 vpwr vgnd scs8hd_fill_2
XFILLER_2_154 vpwr vgnd scs8hd_fill_2
XFILLER_0_24 vgnd vpwr scs8hd_decap_6
XANTENNA_mem_top_ipin_0.LATCH_3_.latch_D data_in vgnd vpwr scs8hd_diode_2
XANTENNA__119__A _106_/X vgnd vpwr scs8hd_diode_2
XFILLER_9_77 vpwr vgnd scs8hd_fill_2
XANTENNA_mem_top_ipin_1.LATCH_1_.latch_D data_in vgnd vpwr scs8hd_diode_2
XFILLER_20_242 vgnd vpwr scs8hd_decap_6
X_114_ _114_/A _113_/X _115_/A vgnd vpwr scs8hd_or2_4
Xmem_top_ipin_5.LATCH_0_.latch data_in mem_top_ipin_5.LATCH_0_.latch/Q _146_/Y vgnd
+ vpwr scs8hd_lpflow_inputisolatch_1
XFILLER_11_286 vpwr vgnd scs8hd_fill_2
XFILLER_11_297 vpwr vgnd scs8hd_fill_2
XANTENNA__121__B _115_/X vgnd vpwr scs8hd_diode_2
XFILLER_19_342 vgnd vpwr scs8hd_decap_12
XANTENNA_mux_top_ipin_4.mux_l2_in_0_.TGATE_2_.scs8hd_ebufn_2_A _190_/HI vgnd vpwr
+ scs8hd_diode_2
XANTENNA_mux_top_ipin_2.INVTX1_1_.scs8hd_inv_1_A chanx_right_in[0] vgnd vpwr scs8hd_diode_2
XFILLER_20_32 vgnd vpwr scs8hd_decap_12
Xmux_top_ipin_0.mux_l1_in_1_.TGATE_0_.scs8hd_ebufn_2 mux_top_ipin_0.INVTX1_3_.scs8hd_inv_1/Y
+ mem_top_ipin_0.LATCH_0_.latch/Q mux_top_ipin_0.mux_l1_in_1_.TGATE_1_.scs8hd_ebufn_2/Z
+ vgnd vpwr scs8hd_ebufn_2
XFILLER_20_87 vgnd vpwr scs8hd_decap_6
XFILLER_16_389 vgnd vpwr scs8hd_decap_8
Xmem_top_ipin_7.LATCH_3_.latch data_in mem_top_ipin_7.LATCH_3_.latch/Q _159_/Y vgnd
+ vpwr scs8hd_lpflow_inputisolatch_1
XANTENNA_mux_top_ipin_6.INVTX1_2_.scs8hd_inv_1_A chanx_left_in[4] vgnd vpwr scs8hd_diode_2
XANTENNA__116__B _115_/X vgnd vpwr scs8hd_diode_2
XANTENNA__132__A _070_/X vgnd vpwr scs8hd_diode_2
XANTENNA_mux_top_ipin_0.mux_l1_in_0_.TGATE_2_.scs8hd_ebufn_2_A mux_top_ipin_0.INVTX1_2_.scs8hd_inv_1/Y
+ vgnd vpwr scs8hd_diode_2
XFILLER_19_172 vgnd vpwr scs8hd_decap_8
XANTENNA_mem_top_ipin_1.LATCH_4_.latch_SLEEPB _103_/Y vgnd vpwr scs8hd_diode_2
Xmux_bottom_ipin_0.mux_l2_in_0_.TGATE_2_.scs8hd_ebufn_2 _183_/HI mem_bottom_ipin_0.LATCH_5_.latch/Q
+ mux_bottom_ipin_0.tap_buf4_0_.scs8hd_inv_1/A vgnd vpwr scs8hd_ebufn_2
Xmux_bottom_ipin_0.INVTX1_3_.scs8hd_inv_1 chanx_right_in[4] mux_bottom_ipin_0.INVTX1_3_.scs8hd_inv_1/Y
+ vgnd vpwr scs8hd_inv_1
XANTENNA_mem_top_ipin_4.LATCH_5_.latch_D data_in vgnd vpwr scs8hd_diode_2
XFILLER_9_319 vpwr vgnd scs8hd_fill_2
XANTENNA_mem_top_ipin_5.LATCH_3_.latch_D data_in vgnd vpwr scs8hd_diode_2
XPHY_170 vgnd vpwr scs8hd_tapvpwrvgnd_1
XFILLER_16_186 vpwr vgnd scs8hd_fill_2
XANTENNA__127__A _106_/X vgnd vpwr scs8hd_diode_2
XPHY_181 vgnd vpwr scs8hd_tapvpwrvgnd_1
XFILLER_8_385 vpwr vgnd scs8hd_fill_2
XANTENNA_mem_top_ipin_6.LATCH_1_.latch_D data_in vgnd vpwr scs8hd_diode_2
XFILLER_10_318 vgnd vpwr scs8hd_fill_1
Xmux_top_ipin_4.mux_l1_in_1_.TGATE_1_.scs8hd_ebufn_2 mux_top_ipin_4.INVTX1_4_.scs8hd_inv_1/Y
+ mem_top_ipin_4.LATCH_1_.latch/Q mux_top_ipin_4.mux_l1_in_1_.TGATE_0_.scs8hd_ebufn_2/Z
+ vgnd vpwr scs8hd_ebufn_2
XFILLER_3_46 vpwr vgnd scs8hd_fill_2
XANTENNA_mux_top_ipin_0.mux_l2_in_0_.TGATE_0_.scs8hd_ebufn_2_A mux_top_ipin_0.mux_l1_in_0_.TGATE_0_.scs8hd_ebufn_2/Z
+ vgnd vpwr scs8hd_diode_2
Xmux_top_ipin_5.INVTX1_0_.scs8hd_inv_1 chanx_left_in[3] mux_top_ipin_5.INVTX1_0_.scs8hd_inv_1/Y
+ vgnd vpwr scs8hd_inv_1
XANTENNA_mux_top_ipin_7.mux_l1_in_0_.TGATE_1_.scs8hd_ebufn_2_A mux_top_ipin_7.INVTX1_1_.scs8hd_inv_1/Y
+ vgnd vpwr scs8hd_diode_2
XANTENNA_mux_bottom_ipin_1.mux_l1_in_0_.TGATE_1_.scs8hd_ebufn_2_A mux_bottom_ipin_1.INVTX1_1_.scs8hd_inv_1/Y
+ vgnd vpwr scs8hd_diode_2
XFILLER_2_369 vgnd vpwr scs8hd_fill_1
XFILLER_18_215 vgnd vpwr scs8hd_decap_12
XANTENNA__124__B _123_/X vgnd vpwr scs8hd_diode_2
XFILLER_5_130 vgnd vpwr scs8hd_decap_3
XFILLER_5_163 vgnd vpwr scs8hd_decap_3
XFILLER_5_174 vpwr vgnd scs8hd_fill_2
Xmux_top_ipin_6.INVTX1_4_.scs8hd_inv_1 chanx_left_in[8] mux_top_ipin_6.INVTX1_4_.scs8hd_inv_1/Y
+ vgnd vpwr scs8hd_inv_1
XFILLER_1_380 vpwr vgnd scs8hd_fill_2
XANTENNA__140__A _139_/X vgnd vpwr scs8hd_diode_2
XFILLER_17_281 vgnd vpwr scs8hd_decap_12
Xmux_top_ipin_0.tap_buf4_0_.scs8hd_inv_1 mux_top_ipin_0.tap_buf4_0_.scs8hd_inv_1/A
+ bottom_grid_pin_0_ vgnd vpwr scs8hd_inv_1
XANTENNA_mux_top_ipin_4.mux_l2_in_0_.TGATE_2_.scs8hd_ebufn_2_TEB mem_top_ipin_4.LATCH_5_.latch/Q
+ vgnd vpwr scs8hd_diode_2
X_130_ _099_/A _175_/B _073_/Y _114_/A _131_/A vgnd vpwr scs8hd_or4_4
XFILLER_2_122 vgnd vpwr scs8hd_fill_1
XFILLER_2_100 vgnd vpwr scs8hd_fill_1
XFILLER_2_188 vpwr vgnd scs8hd_fill_2
XFILLER_2_144 vpwr vgnd scs8hd_fill_2
XFILLER_14_240 vgnd vpwr scs8hd_decap_8
XFILLER_0_58 vpwr vgnd scs8hd_fill_2
XANTENNA__119__B _115_/X vgnd vpwr scs8hd_diode_2
XFILLER_9_23 vpwr vgnd scs8hd_fill_2
XANTENNA__135__A _106_/X vgnd vpwr scs8hd_diode_2
X_113_ _112_/X _113_/X vgnd vpwr scs8hd_buf_1
XFILLER_11_265 vpwr vgnd scs8hd_fill_2
XFILLER_7_258 vpwr vgnd scs8hd_fill_2
XFILLER_19_354 vgnd vpwr scs8hd_decap_12
XFILLER_15_7 vpwr vgnd scs8hd_fill_2
Xmux_top_ipin_6.mux_l1_in_0_.TGATE_0_.scs8hd_ebufn_2 mux_top_ipin_6.INVTX1_0_.scs8hd_inv_1/Y
+ mem_top_ipin_6.LATCH_0_.latch/Q mux_top_ipin_6.mux_l1_in_0_.TGATE_2_.scs8hd_ebufn_2/Z
+ vgnd vpwr scs8hd_ebufn_2
XFILLER_20_44 vgnd vpwr scs8hd_decap_12
XFILLER_4_206 vpwr vgnd scs8hd_fill_2
XFILLER_4_228 vgnd vpwr scs8hd_decap_12
XFILLER_6_24 vgnd vpwr scs8hd_decap_6
XANTENNA__132__B _131_/X vgnd vpwr scs8hd_diode_2
XFILLER_19_184 vgnd vpwr scs8hd_decap_12
XFILLER_15_11 vgnd vpwr scs8hd_decap_4
XANTENNA_mem_bottom_ipin_0.LATCH_5_.latch_D data_in vgnd vpwr scs8hd_diode_2
Xmux_top_ipin_3.mux_l2_in_0_.TGATE_0_.scs8hd_ebufn_2 mux_top_ipin_3.mux_l1_in_0_.TGATE_1_.scs8hd_ebufn_2/Z
+ mem_top_ipin_3.LATCH_3_.latch/Q mux_top_ipin_3.tap_buf4_0_.scs8hd_inv_1/A vgnd vpwr
+ scs8hd_ebufn_2
XFILLER_16_132 vpwr vgnd scs8hd_fill_2
XFILLER_0_275 vpwr vgnd scs8hd_fill_2
XPHY_182 vgnd vpwr scs8hd_tapvpwrvgnd_1
XPHY_171 vgnd vpwr scs8hd_tapvpwrvgnd_1
XPHY_160 vgnd vpwr scs8hd_tapvpwrvgnd_1
XFILLER_16_154 vgnd vpwr scs8hd_decap_4
XFILLER_12_382 vgnd vpwr scs8hd_decap_12
XANTENNA__127__B _123_/X vgnd vpwr scs8hd_diode_2
XFILLER_8_320 vpwr vgnd scs8hd_fill_2
XANTENNA__143__A _105_/A vgnd vpwr scs8hd_diode_2
XANTENNA_mem_bottom_ipin_2.LATCH_1_.latch_D data_in vgnd vpwr scs8hd_diode_2
XANTENNA_mux_top_ipin_6.mux_l2_in_0_.TGATE_1_.scs8hd_ebufn_2_TEB mem_top_ipin_6.LATCH_4_.latch/Q
+ vgnd vpwr scs8hd_diode_2
Xmem_top_ipin_0.LATCH_4_.latch data_in mem_top_ipin_0.LATCH_4_.latch/Q _081_/Y vgnd
+ vpwr scs8hd_lpflow_inputisolatch_1
XFILLER_13_179 vpwr vgnd scs8hd_fill_2
XFILLER_13_157 vpwr vgnd scs8hd_fill_2
XANTENNA_mux_top_ipin_4.mux_l1_in_1_.TGATE_2_.scs8hd_ebufn_2_A mux_top_ipin_4.INVTX1_5_.scs8hd_inv_1/Y
+ vgnd vpwr scs8hd_diode_2
XFILLER_3_25 vpwr vgnd scs8hd_fill_2
XFILLER_3_58 vgnd vpwr scs8hd_decap_3
XFILLER_3_69 vpwr vgnd scs8hd_fill_2
XANTENNA__138__A _098_/A vgnd vpwr scs8hd_diode_2
XFILLER_8_161 vgnd vpwr scs8hd_decap_3
XANTENNA_mem_top_ipin_6.LATCH_4_.latch_SLEEPB _150_/Y vgnd vpwr scs8hd_diode_2
XFILLER_6_109 vpwr vgnd scs8hd_fill_2
XFILLER_12_23 vpwr vgnd scs8hd_fill_2
Xmux_bottom_ipin_2.mux_l1_in_0_.TGATE_2_.scs8hd_ebufn_2 mux_bottom_ipin_2.INVTX1_2_.scs8hd_inv_1/Y
+ mem_bottom_ipin_2.LATCH_2_.latch/Q mux_bottom_ipin_2.mux_l1_in_0_.TGATE_1_.scs8hd_ebufn_2/Z
+ vgnd vpwr scs8hd_ebufn_2
XFILLER_18_227 vgnd vpwr scs8hd_decap_12
Xmux_top_ipin_7.mux_l2_in_0_.TGATE_1_.scs8hd_ebufn_2 mux_top_ipin_7.mux_l1_in_1_.TGATE_1_.scs8hd_ebufn_2/Z
+ mem_top_ipin_7.LATCH_4_.latch/Q mux_top_ipin_7.tap_buf4_0_.scs8hd_inv_1/A vgnd vpwr
+ scs8hd_ebufn_2
XANTENNA_mux_top_ipin_1.mux_l2_in_0_.TGATE_1_.scs8hd_ebufn_2_TEB mem_top_ipin_1.LATCH_4_.latch/Q
+ vgnd vpwr scs8hd_diode_2
XFILLER_17_293 vgnd vpwr scs8hd_decap_12
Xmux_top_ipin_3.INVTX1_0_.scs8hd_inv_1 chanx_left_in[1] mux_top_ipin_3.INVTX1_0_.scs8hd_inv_1/Y
+ vgnd vpwr scs8hd_inv_1
XFILLER_11_403 vgnd vpwr scs8hd_decap_4
XFILLER_3_3 vpwr vgnd scs8hd_fill_2
XFILLER_2_167 vgnd vpwr scs8hd_decap_4
XFILLER_14_252 vgnd vpwr scs8hd_fill_1
XFILLER_0_37 vpwr vgnd scs8hd_fill_2
XFILLER_9_35 vpwr vgnd scs8hd_fill_2
X_189_ _189_/HI _189_/LO vgnd vpwr scs8hd_conb_1
XFILLER_9_57 vpwr vgnd scs8hd_fill_2
XANTENNA__135__B _131_/X vgnd vpwr scs8hd_diode_2
XANTENNA__151__A _105_/A vgnd vpwr scs8hd_diode_2
XFILLER_20_211 vgnd vpwr scs8hd_decap_6
Xmux_top_ipin_4.INVTX1_4_.scs8hd_inv_1 chanx_left_in[7] mux_top_ipin_4.INVTX1_4_.scs8hd_inv_1/Y
+ vgnd vpwr scs8hd_inv_1
Xmem_bottom_ipin_0.LATCH_4_.latch data_in mem_bottom_ipin_0.LATCH_4_.latch/Q _170_/Y
+ vgnd vpwr scs8hd_lpflow_inputisolatch_1
XFILLER_18_11 vpwr vgnd scs8hd_fill_2
XANTENNA_mux_top_ipin_0.mux_l1_in_1_.TGATE_0_.scs8hd_ebufn_2_A mux_top_ipin_0.INVTX1_3_.scs8hd_inv_1/Y
+ vgnd vpwr scs8hd_diode_2
XFILLER_18_55 vgnd vpwr scs8hd_decap_12
X_112_ _175_/A address[4] _073_/Y _112_/X vgnd vpwr scs8hd_or3_4
XFILLER_7_204 vpwr vgnd scs8hd_fill_2
XFILLER_11_233 vpwr vgnd scs8hd_fill_2
XFILLER_19_377 vpwr vgnd scs8hd_fill_2
XANTENNA__146__A _110_/X vgnd vpwr scs8hd_diode_2
XANTENNA_mux_top_ipin_5.mux_l2_in_0_.TGATE_2_.scs8hd_ebufn_2_A _191_/HI vgnd vpwr
+ scs8hd_diode_2
XFILLER_20_56 vgnd vpwr scs8hd_decap_6
XANTENNA_mem_top_ipin_4.LATCH_5_.latch_SLEEPB _132_/Y vgnd vpwr scs8hd_diode_2
Xmux_top_ipin_3.mux_l1_in_1_.TGATE_1_.scs8hd_ebufn_2 mux_top_ipin_3.INVTX1_4_.scs8hd_inv_1/Y
+ mem_top_ipin_3.LATCH_1_.latch/Q mux_top_ipin_3.mux_l1_in_1_.TGATE_2_.scs8hd_ebufn_2/Z
+ vgnd vpwr scs8hd_ebufn_2
XFILLER_6_47 vpwr vgnd scs8hd_fill_2
XANTENNA_mux_top_ipin_1.INVTX1_5_.scs8hd_inv_1_A chanx_right_in[8] vgnd vpwr scs8hd_diode_2
XFILLER_3_295 vpwr vgnd scs8hd_fill_2
XFILLER_19_196 vgnd vpwr scs8hd_decap_12
Xmem_top_ipin_1.LATCH_0_.latch data_in mem_top_ipin_1.LATCH_0_.latch/Q _111_/Y vgnd
+ vpwr scs8hd_lpflow_inputisolatch_1
XANTENNA_mux_top_ipin_1.mux_l1_in_0_.TGATE_2_.scs8hd_ebufn_2_A mux_top_ipin_1.INVTX1_2_.scs8hd_inv_1/Y
+ vgnd vpwr scs8hd_diode_2
XFILLER_15_78 vpwr vgnd scs8hd_fill_2
XFILLER_15_67 vpwr vgnd scs8hd_fill_2
XFILLER_15_45 vgnd vpwr scs8hd_decap_4
XFILLER_15_34 vgnd vpwr scs8hd_fill_1
XFILLER_0_221 vpwr vgnd scs8hd_fill_2
XANTENNA_mux_top_ipin_3.mux_l2_in_0_.TGATE_0_.scs8hd_ebufn_2_TEB mem_top_ipin_3.LATCH_3_.latch/Q
+ vgnd vpwr scs8hd_diode_2
XPHY_183 vgnd vpwr scs8hd_tapvpwrvgnd_1
XPHY_172 vgnd vpwr scs8hd_tapvpwrvgnd_1
XPHY_161 vgnd vpwr scs8hd_tapvpwrvgnd_1
XPHY_150 vgnd vpwr scs8hd_tapvpwrvgnd_1
XFILLER_12_394 vgnd vpwr scs8hd_decap_3
XFILLER_8_332 vgnd vpwr scs8hd_decap_4
Xmem_top_ipin_3.LATCH_3_.latch data_in mem_top_ipin_3.LATCH_3_.latch/Q _126_/Y vgnd
+ vpwr scs8hd_lpflow_inputisolatch_1
XANTENNA__143__B _146_/B vgnd vpwr scs8hd_diode_2
XFILLER_8_398 vgnd vpwr scs8hd_decap_8
XFILLER_13_136 vpwr vgnd scs8hd_fill_2
XFILLER_13_114 vpwr vgnd scs8hd_fill_2
XFILLER_9_118 vpwr vgnd scs8hd_fill_2
Xmux_top_ipin_7.mux_l1_in_1_.TGATE_2_.scs8hd_ebufn_2 mux_top_ipin_7.INVTX1_5_.scs8hd_inv_1/Y
+ mem_top_ipin_7.LATCH_2_.latch/Q mux_top_ipin_7.mux_l1_in_1_.TGATE_1_.scs8hd_ebufn_2/Z
+ vgnd vpwr scs8hd_ebufn_2
XFILLER_5_335 vpwr vgnd scs8hd_fill_2
XANTENNA_mux_top_ipin_1.mux_l2_in_0_.TGATE_0_.scs8hd_ebufn_2_A mux_top_ipin_1.mux_l2_in_0_.TGATE_0_.scs8hd_ebufn_2/A
+ vgnd vpwr scs8hd_diode_2
XANTENNA__138__B address[5] vgnd vpwr scs8hd_diode_2
XANTENNA__154__A _110_/X vgnd vpwr scs8hd_diode_2
XANTENNA_mux_bottom_ipin_2.mux_l1_in_0_.TGATE_1_.scs8hd_ebufn_2_A mux_bottom_ipin_2.INVTX1_1_.scs8hd_inv_1/Y
+ vgnd vpwr scs8hd_diode_2
XFILLER_2_327 vpwr vgnd scs8hd_fill_2
XFILLER_2_305 vpwr vgnd scs8hd_fill_2
XFILLER_5_7 vpwr vgnd scs8hd_fill_2
XFILLER_12_46 vgnd vpwr scs8hd_decap_3
XFILLER_18_239 vgnd vpwr scs8hd_decap_12
XFILLER_1_360 vgnd vpwr scs8hd_decap_4
XFILLER_5_187 vpwr vgnd scs8hd_fill_2
Xmem_bottom_ipin_1.LATCH_0_.latch data_in _166_/A _164_/Y vgnd vpwr scs8hd_lpflow_inputisolatch_1
XANTENNA__149__A _177_/A vgnd vpwr scs8hd_diode_2
XFILLER_20_404 vgnd vpwr scs8hd_decap_3
Xmux_top_ipin_5.mux_l1_in_0_.TGATE_0_.scs8hd_ebufn_2 mux_top_ipin_5.INVTX1_0_.scs8hd_inv_1/Y
+ mem_top_ipin_5.LATCH_0_.latch/Q mux_top_ipin_5.mux_l1_in_0_.TGATE_2_.scs8hd_ebufn_2/Z
+ vgnd vpwr scs8hd_ebufn_2
X_188_ _188_/HI _188_/LO vgnd vpwr scs8hd_conb_1
XANTENNA__151__B _150_/B vgnd vpwr scs8hd_diode_2
Xmux_top_ipin_2.mux_l2_in_0_.TGATE_0_.scs8hd_ebufn_2 mux_top_ipin_2.mux_l1_in_0_.TGATE_2_.scs8hd_ebufn_2/Z
+ mem_top_ipin_2.LATCH_3_.latch/Q mux_top_ipin_2.tap_buf4_0_.scs8hd_inv_1/A vgnd vpwr
+ scs8hd_ebufn_2
Xmux_bottom_ipin_2.INVTX1_0_.scs8hd_inv_1 chanx_left_in[1] mux_bottom_ipin_2.INVTX1_0_.scs8hd_inv_1/Y
+ vgnd vpwr scs8hd_inv_1
XFILLER_18_67 vgnd vpwr scs8hd_decap_12
XFILLER_11_212 vpwr vgnd scs8hd_fill_2
Xmux_top_ipin_1.INVTX1_0_.scs8hd_inv_1 chanx_left_in[3] mux_top_ipin_1.INVTX1_0_.scs8hd_inv_1/Y
+ vgnd vpwr scs8hd_inv_1
XFILLER_7_238 vgnd vpwr scs8hd_decap_4
X_111_ _110_/X _105_/B _111_/Y vgnd vpwr scs8hd_nor2_4
XFILLER_11_245 vpwr vgnd scs8hd_fill_2
XFILLER_19_367 vgnd vpwr scs8hd_decap_6
XANTENNA__146__B _146_/B vgnd vpwr scs8hd_diode_2
XANTENNA__162__A _174_/A vgnd vpwr scs8hd_diode_2
XFILLER_6_260 vpwr vgnd scs8hd_fill_2
XFILLER_1_81 vpwr vgnd scs8hd_fill_2
XANTENNA_mux_top_ipin_3.INVTX1_3_.scs8hd_inv_1_A chanx_right_in[5] vgnd vpwr scs8hd_diode_2
XANTENNA__072__A address[4] vgnd vpwr scs8hd_diode_2
XFILLER_16_337 vgnd vpwr scs8hd_decap_12
XFILLER_16_304 vgnd vpwr scs8hd_decap_12
Xmux_top_ipin_2.INVTX1_4_.scs8hd_inv_1 chanx_left_in[5] mux_top_ipin_2.INVTX1_4_.scs8hd_inv_1/Y
+ vgnd vpwr scs8hd_inv_1
XFILLER_3_252 vgnd vpwr scs8hd_fill_1
XANTENNA_mux_top_ipin_7.INVTX1_4_.scs8hd_inv_1_A chanx_left_in[5] vgnd vpwr scs8hd_diode_2
XFILLER_3_274 vpwr vgnd scs8hd_fill_2
XFILLER_15_381 vgnd vpwr scs8hd_decap_12
XANTENNA__157__A _177_/A vgnd vpwr scs8hd_diode_2
XFILLER_15_57 vpwr vgnd scs8hd_fill_2
XANTENNA__067__A address[0] vgnd vpwr scs8hd_diode_2
Xmem_top_ipin_6.LATCH_2_.latch data_in mem_top_ipin_6.LATCH_2_.latch/Q _152_/Y vgnd
+ vpwr scs8hd_lpflow_inputisolatch_1
Xmux_top_ipin_6.mux_l2_in_0_.TGATE_1_.scs8hd_ebufn_2 mux_top_ipin_6.mux_l1_in_1_.TGATE_0_.scs8hd_ebufn_2/Z
+ mem_top_ipin_6.LATCH_4_.latch/Q mux_top_ipin_6.tap_buf4_0_.scs8hd_inv_1/A vgnd vpwr
+ scs8hd_ebufn_2
XFILLER_0_299 vgnd vpwr scs8hd_fill_1
XFILLER_0_244 vpwr vgnd scs8hd_fill_2
XFILLER_0_200 vgnd vpwr scs8hd_fill_1
XFILLER_16_145 vgnd vpwr scs8hd_decap_8
XPHY_184 vgnd vpwr scs8hd_tapvpwrvgnd_1
XPHY_173 vgnd vpwr scs8hd_tapvpwrvgnd_1
XPHY_162 vgnd vpwr scs8hd_tapvpwrvgnd_1
XPHY_151 vgnd vpwr scs8hd_tapvpwrvgnd_1
XPHY_140 vgnd vpwr scs8hd_tapvpwrvgnd_1
XFILLER_12_351 vpwr vgnd scs8hd_fill_2
XFILLER_8_366 vpwr vgnd scs8hd_fill_2
XANTENNA_mux_bottom_ipin_1.mux_l2_in_0_.TGATE_1_.scs8hd_ebufn_2_TEB _165_/Y vgnd vpwr
+ scs8hd_diode_2
XANTENNA_mux_top_ipin_5.mux_l1_in_1_.TGATE_2_.scs8hd_ebufn_2_A mux_top_ipin_5.INVTX1_5_.scs8hd_inv_1/Y
+ vgnd vpwr scs8hd_diode_2
XFILLER_5_358 vpwr vgnd scs8hd_fill_2
XANTENNA__154__B _150_/B vgnd vpwr scs8hd_diode_2
XFILLER_8_152 vgnd vpwr scs8hd_fill_1
XANTENNA__170__A _178_/A vgnd vpwr scs8hd_diode_2
XANTENNA_mem_top_ipin_3.LATCH_0_.latch_SLEEPB _129_/Y vgnd vpwr scs8hd_diode_2
XANTENNA_mem_top_ipin_1.LATCH_4_.latch_D data_in vgnd vpwr scs8hd_diode_2
XANTENNA_mem_top_ipin_2.LATCH_2_.latch_D data_in vgnd vpwr scs8hd_diode_2
XFILLER_10_118 vpwr vgnd scs8hd_fill_2
XANTENNA__080__A _080_/A vgnd vpwr scs8hd_diode_2
XFILLER_12_58 vgnd vpwr scs8hd_decap_4
XANTENNA_mem_top_ipin_3.LATCH_0_.latch_D data_in vgnd vpwr scs8hd_diode_2
XANTENNA_mem_bottom_ipin_2.LATCH_4_.latch_SLEEPB _178_/Y vgnd vpwr scs8hd_diode_2
XANTENNA__149__B _150_/B vgnd vpwr scs8hd_diode_2
XANTENNA__165__A _165_/A vgnd vpwr scs8hd_diode_2
Xmux_top_ipin_2.mux_l1_in_1_.TGATE_1_.scs8hd_ebufn_2 mux_top_ipin_2.INVTX1_4_.scs8hd_inv_1/Y
+ mem_top_ipin_2.LATCH_1_.latch/Q mux_top_ipin_2.mux_l1_in_1_.TGATE_2_.scs8hd_ebufn_2/Z
+ vgnd vpwr scs8hd_ebufn_2
XANTENNA__075__A _075_/A vgnd vpwr scs8hd_diode_2
XFILLER_2_136 vpwr vgnd scs8hd_fill_2
XFILLER_2_125 vpwr vgnd scs8hd_fill_2
XFILLER_2_103 vpwr vgnd scs8hd_fill_2
XFILLER_14_276 vgnd vpwr scs8hd_decap_6
X_187_ _187_/HI _187_/LO vgnd vpwr scs8hd_conb_1
XANTENNA_mux_top_ipin_1.INVTX1_0_.scs8hd_inv_1_A chanx_left_in[3] vgnd vpwr scs8hd_diode_2
XFILLER_18_79 vgnd vpwr scs8hd_decap_12
XFILLER_18_35 vgnd vpwr scs8hd_decap_12
XANTENNA_mux_top_ipin_1.mux_l1_in_1_.TGATE_0_.scs8hd_ebufn_2_A mux_top_ipin_1.INVTX1_3_.scs8hd_inv_1/Y
+ vgnd vpwr scs8hd_diode_2
X_110_ _174_/A _110_/X vgnd vpwr scs8hd_buf_1
XFILLER_7_217 vpwr vgnd scs8hd_fill_2
XANTENNA_mux_top_ipin_5.INVTX1_1_.scs8hd_inv_1_A chanx_right_in[3] vgnd vpwr scs8hd_diode_2
XANTENNA__162__B _156_/X vgnd vpwr scs8hd_diode_2
XANTENNA_mem_top_ipin_6.LATCH_4_.latch_D data_in vgnd vpwr scs8hd_diode_2
XFILLER_6_272 vgnd vpwr scs8hd_decap_3
XANTENNA_mux_bottom_ipin_0.mux_l2_in_0_.TGATE_2_.scs8hd_ebufn_2_A _183_/HI vgnd vpwr
+ scs8hd_diode_2
XANTENNA_mux_top_ipin_6.mux_l2_in_0_.TGATE_2_.scs8hd_ebufn_2_A _192_/HI vgnd vpwr
+ scs8hd_diode_2
XFILLER_1_71 vgnd vpwr scs8hd_decap_4
XANTENNA_mem_top_ipin_7.LATCH_2_.latch_D data_in vgnd vpwr scs8hd_diode_2
XANTENNA_mem_top_ipin_1.LATCH_1_.latch_SLEEPB _109_/Y vgnd vpwr scs8hd_diode_2
Xmux_top_ipin_6.mux_l1_in_1_.TGATE_2_.scs8hd_ebufn_2 mux_top_ipin_6.INVTX1_5_.scs8hd_inv_1/Y
+ mem_top_ipin_6.LATCH_2_.latch/Q mux_top_ipin_6.mux_l1_in_1_.TGATE_0_.scs8hd_ebufn_2/Z
+ vgnd vpwr scs8hd_ebufn_2
XFILLER_0_404 vgnd vpwr scs8hd_decap_3
XFILLER_16_349 vgnd vpwr scs8hd_decap_12
XFILLER_16_316 vgnd vpwr scs8hd_decap_12
Xmux_bottom_ipin_0.INVTX1_0_.scs8hd_inv_1 chanx_left_in[0] mux_bottom_ipin_0.INVTX1_0_.scs8hd_inv_1/Y
+ vgnd vpwr scs8hd_inv_1
XFILLER_3_220 vpwr vgnd scs8hd_fill_2
XFILLER_10_91 vgnd vpwr scs8hd_fill_1
XFILLER_19_132 vpwr vgnd scs8hd_fill_2
XFILLER_19_110 vgnd vpwr scs8hd_decap_12
XFILLER_15_393 vgnd vpwr scs8hd_decap_12
XFILLER_15_360 vgnd vpwr scs8hd_fill_1
XANTENNA__157__B _156_/X vgnd vpwr scs8hd_diode_2
XANTENNA_mem_bottom_ipin_0.LATCH_5_.latch_SLEEPB _169_/Y vgnd vpwr scs8hd_diode_2
XANTENNA_mux_top_ipin_6.mux_l1_in_0_.TGATE_2_.scs8hd_ebufn_2_TEB mem_top_ipin_6.LATCH_2_.latch/Q
+ vgnd vpwr scs8hd_diode_2
XANTENNA_mux_top_ipin_2.mux_l1_in_0_.TGATE_2_.scs8hd_ebufn_2_A mux_top_ipin_2.INVTX1_2_.scs8hd_inv_1/Y
+ vgnd vpwr scs8hd_diode_2
XANTENNA__173__A _108_/A vgnd vpwr scs8hd_diode_2
XANTENNA__083__A _086_/A vgnd vpwr scs8hd_diode_2
XFILLER_16_124 vgnd vpwr scs8hd_decap_8
XPHY_152 vgnd vpwr scs8hd_tapvpwrvgnd_1
Xmux_top_ipin_4.mux_l1_in_0_.TGATE_0_.scs8hd_ebufn_2 mux_top_ipin_4.INVTX1_0_.scs8hd_inv_1/Y
+ mem_top_ipin_4.LATCH_0_.latch/Q mux_top_ipin_4.mux_l1_in_0_.TGATE_0_.scs8hd_ebufn_2/Z
+ vgnd vpwr scs8hd_ebufn_2
XPHY_141 vgnd vpwr scs8hd_tapvpwrvgnd_1
XPHY_130 vgnd vpwr scs8hd_tapvpwrvgnd_1
XPHY_185 vgnd vpwr scs8hd_tapvpwrvgnd_1
XPHY_174 vgnd vpwr scs8hd_tapvpwrvgnd_1
XPHY_163 vgnd vpwr scs8hd_tapvpwrvgnd_1
XFILLER_8_301 vgnd vpwr scs8hd_decap_4
XFILLER_8_389 vgnd vpwr scs8hd_decap_8
Xmux_top_ipin_0.INVTX1_4_.scs8hd_inv_1 chanx_left_in[7] mux_top_ipin_0.INVTX1_4_.scs8hd_inv_1/Y
+ vgnd vpwr scs8hd_inv_1
XANTENNA_mux_top_ipin_0.tap_buf4_0_.scs8hd_inv_1_A mux_top_ipin_0.tap_buf4_0_.scs8hd_inv_1/A
+ vgnd vpwr scs8hd_diode_2
XANTENNA__168__A _167_/X vgnd vpwr scs8hd_diode_2
XANTENNA__078__A _070_/X vgnd vpwr scs8hd_diode_2
XANTENNA_mux_top_ipin_1.mux_l1_in_0_.TGATE_2_.scs8hd_ebufn_2_TEB mem_top_ipin_1.LATCH_2_.latch/Q
+ vgnd vpwr scs8hd_diode_2
XFILLER_5_315 vpwr vgnd scs8hd_fill_2
XFILLER_5_326 vpwr vgnd scs8hd_fill_2
XANTENNA_mux_top_ipin_2.mux_l2_in_0_.TGATE_0_.scs8hd_ebufn_2_A mux_top_ipin_2.mux_l1_in_0_.TGATE_2_.scs8hd_ebufn_2/Z
+ vgnd vpwr scs8hd_diode_2
Xmux_top_ipin_1.mux_l2_in_0_.TGATE_0_.scs8hd_ebufn_2 mux_top_ipin_1.mux_l2_in_0_.TGATE_0_.scs8hd_ebufn_2/A
+ mem_top_ipin_1.LATCH_3_.latch/Q mux_top_ipin_1.tap_buf4_0_.scs8hd_inv_1/A vgnd vpwr
+ scs8hd_ebufn_2
XANTENNA__170__B _174_/B vgnd vpwr scs8hd_diode_2
XFILLER_12_182 vpwr vgnd scs8hd_fill_2
XFILLER_8_186 vgnd vpwr scs8hd_decap_3
XFILLER_4_381 vgnd vpwr scs8hd_decap_3
Xmux_top_ipin_6.INVTX1_1_.scs8hd_inv_1 chanx_right_in[0] mux_top_ipin_6.INVTX1_1_.scs8hd_inv_1/Y
+ vgnd vpwr scs8hd_inv_1
Xmux_top_ipin_3.tap_buf4_0_.scs8hd_inv_1 mux_top_ipin_3.tap_buf4_0_.scs8hd_inv_1/A
+ bottom_grid_pin_6_ vgnd vpwr scs8hd_inv_1
XFILLER_5_178 vpwr vgnd scs8hd_fill_2
XANTENNA_mux_top_ipin_4.mux_l1_in_1_.TGATE_2_.scs8hd_ebufn_2_TEB mem_top_ipin_4.LATCH_2_.latch/Q
+ vgnd vpwr scs8hd_diode_2
XFILLER_17_241 vgnd vpwr scs8hd_decap_3
XANTENNA__181__A _108_/A vgnd vpwr scs8hd_diode_2
Xmux_top_ipin_7.INVTX1_5_.scs8hd_inv_1 chanx_right_in[5] mux_top_ipin_7.INVTX1_5_.scs8hd_inv_1/Y
+ vgnd vpwr scs8hd_inv_1
XANTENNA__091__A _094_/A vgnd vpwr scs8hd_diode_2
XFILLER_2_148 vpwr vgnd scs8hd_fill_2
XFILLER_14_222 vpwr vgnd scs8hd_fill_2
XFILLER_9_27 vpwr vgnd scs8hd_fill_2
X_186_ _186_/HI _186_/LO vgnd vpwr scs8hd_conb_1
XFILLER_1_170 vgnd vpwr scs8hd_decap_4
Xmux_bottom_ipin_0.mux_l1_in_0_.TGATE_2_.scs8hd_ebufn_2 mux_bottom_ipin_0.INVTX1_2_.scs8hd_inv_1/Y
+ mem_bottom_ipin_0.LATCH_2_.latch/Q mux_bottom_ipin_0.mux_l1_in_0_.TGATE_2_.scs8hd_ebufn_2/Z
+ vgnd vpwr scs8hd_ebufn_2
XANTENNA__176__A _176_/A vgnd vpwr scs8hd_diode_2
Xmux_top_ipin_5.mux_l2_in_0_.TGATE_1_.scs8hd_ebufn_2 mux_top_ipin_5.mux_l1_in_1_.TGATE_1_.scs8hd_ebufn_2/Z
+ mem_top_ipin_5.LATCH_4_.latch/Q mux_top_ipin_5.tap_buf4_0_.scs8hd_inv_1/A vgnd vpwr
+ scs8hd_ebufn_2
XFILLER_18_47 vgnd vpwr scs8hd_decap_4
XANTENNA__086__A _086_/A vgnd vpwr scs8hd_diode_2
XFILLER_1_3 vpwr vgnd scs8hd_fill_2
XFILLER_10_291 vpwr vgnd scs8hd_fill_2
X_169_ _177_/A _174_/B _169_/Y vgnd vpwr scs8hd_nor2_4
XANTENNA_mem_bottom_ipin_2.LATCH_4_.latch_D data_in vgnd vpwr scs8hd_diode_2
XFILLER_20_15 vgnd vpwr scs8hd_decap_12
XANTENNA_mux_top_ipin_3.mux_l1_in_0_.TGATE_1_.scs8hd_ebufn_2_TEB mem_top_ipin_3.LATCH_1_.latch/Q
+ vgnd vpwr scs8hd_diode_2
XFILLER_16_328 vgnd vpwr scs8hd_decap_8
XFILLER_3_243 vgnd vpwr scs8hd_fill_1
XANTENNA__173__B _174_/B vgnd vpwr scs8hd_diode_2
XANTENNA_mux_bottom_ipin_2.INVTX1_5_.scs8hd_inv_1_A chanx_right_in[6] vgnd vpwr scs8hd_diode_2
XFILLER_15_15 vgnd vpwr scs8hd_fill_1
XFILLER_13_309 vpwr vgnd scs8hd_fill_2
XANTENNA__083__B address[2] vgnd vpwr scs8hd_diode_2
XFILLER_0_213 vpwr vgnd scs8hd_fill_2
XPHY_175 vgnd vpwr scs8hd_tapvpwrvgnd_1
XPHY_164 vgnd vpwr scs8hd_tapvpwrvgnd_1
XFILLER_16_169 vpwr vgnd scs8hd_fill_2
XPHY_153 vgnd vpwr scs8hd_tapvpwrvgnd_1
XPHY_142 vgnd vpwr scs8hd_tapvpwrvgnd_1
XPHY_131 vgnd vpwr scs8hd_tapvpwrvgnd_1
XPHY_120 vgnd vpwr scs8hd_tapvpwrvgnd_1
XANTENNA_mux_top_ipin_6.mux_l1_in_1_.TGATE_1_.scs8hd_ebufn_2_TEB mem_top_ipin_6.LATCH_1_.latch/Q
+ vgnd vpwr scs8hd_diode_2
XPHY_186 vgnd vpwr scs8hd_tapvpwrvgnd_1
XFILLER_8_324 vpwr vgnd scs8hd_fill_2
XFILLER_8_346 vgnd vpwr scs8hd_decap_3
Xmux_top_ipin_1.mux_l1_in_1_.TGATE_1_.scs8hd_ebufn_2 mux_top_ipin_1.INVTX1_4_.scs8hd_inv_1/Y
+ mem_top_ipin_1.LATCH_1_.latch/Q mux_top_ipin_1.mux_l1_in_1_.TGATE_1_.scs8hd_ebufn_2/Z
+ vgnd vpwr scs8hd_ebufn_2
XPHY_0 vgnd vpwr scs8hd_decap_3
XFILLER_15_191 vpwr vgnd scs8hd_fill_2
XANTENNA__078__B _094_/A vgnd vpwr scs8hd_diode_2
XANTENNA__094__A _094_/A vgnd vpwr scs8hd_diode_2
XANTENNA_mem_top_ipin_6.LATCH_1_.latch_SLEEPB _153_/Y vgnd vpwr scs8hd_diode_2
XFILLER_3_29 vpwr vgnd scs8hd_fill_2
Xmem_top_ipin_2.LATCH_2_.latch data_in mem_top_ipin_2.LATCH_2_.latch/Q _119_/Y vgnd
+ vpwr scs8hd_lpflow_inputisolatch_1
XANTENNA_mux_top_ipin_6.mux_l1_in_1_.TGATE_2_.scs8hd_ebufn_2_A mux_top_ipin_6.INVTX1_5_.scs8hd_inv_1/Y
+ vgnd vpwr scs8hd_diode_2
XANTENNA_mux_bottom_ipin_0.mux_l1_in_1_.TGATE_2_.scs8hd_ebufn_2_A mux_bottom_ipin_0.INVTX1_5_.scs8hd_inv_1/Y
+ vgnd vpwr scs8hd_diode_2
XFILLER_16_91 vgnd vpwr scs8hd_fill_1
XANTENNA__179__A _179_/A vgnd vpwr scs8hd_diode_2
XANTENNA_mux_top_ipin_1.mux_l1_in_1_.TGATE_1_.scs8hd_ebufn_2_TEB mem_top_ipin_1.LATCH_1_.latch/Q
+ vgnd vpwr scs8hd_diode_2
XFILLER_12_27 vpwr vgnd scs8hd_fill_2
XANTENNA__089__A address[1] vgnd vpwr scs8hd_diode_2
Xmem_top_ipin_4.LATCH_5_.latch data_in mem_top_ipin_4.LATCH_5_.latch/Q _132_/Y vgnd
+ vpwr scs8hd_lpflow_inputisolatch_1
XFILLER_5_146 vpwr vgnd scs8hd_fill_2
XFILLER_5_168 vgnd vpwr scs8hd_decap_3
XANTENNA__181__B _178_/B vgnd vpwr scs8hd_diode_2
Xmux_top_ipin_5.mux_l1_in_1_.TGATE_2_.scs8hd_ebufn_2 mux_top_ipin_5.INVTX1_5_.scs8hd_inv_1/Y
+ mem_top_ipin_5.LATCH_2_.latch/Q mux_top_ipin_5.mux_l1_in_1_.TGATE_1_.scs8hd_ebufn_2/Z
+ vgnd vpwr scs8hd_ebufn_2
XFILLER_4_190 vgnd vpwr scs8hd_fill_1
XANTENNA_mux_top_ipin_5.mux_l1_in_0_.TGATE_0_.scs8hd_ebufn_2_TEB mem_top_ipin_5.LATCH_0_.latch/Q
+ vgnd vpwr scs8hd_diode_2
XANTENNA__091__B _108_/A vgnd vpwr scs8hd_diode_2
XFILLER_14_256 vgnd vpwr scs8hd_decap_8
XFILLER_14_201 vpwr vgnd scs8hd_fill_2
Xmux_top_ipin_4.INVTX1_1_.scs8hd_inv_1 chanx_right_in[2] mux_top_ipin_4.INVTX1_1_.scs8hd_inv_1/Y
+ vgnd vpwr scs8hd_inv_1
X_185_ _185_/HI _185_/LO vgnd vpwr scs8hd_conb_1
XFILLER_14_267 vgnd vpwr scs8hd_decap_8
XFILLER_13_92 vgnd vpwr scs8hd_decap_3
XFILLER_9_39 vpwr vgnd scs8hd_fill_2
XFILLER_1_193 vpwr vgnd scs8hd_fill_2
XFILLER_9_260 vpwr vgnd scs8hd_fill_2
XFILLER_9_282 vpwr vgnd scs8hd_fill_2