* NGSPICE file created from cbx_1__2_.ext - technology: sky130A

* Black-box entry subcircuit for sky130_fd_sc_hd__fill_1 abstract view
.subckt sky130_fd_sc_hd__fill_1 VGND VNB VPB VPWR
.ends

* Black-box entry subcircuit for sky130_fd_sc_hd__decap_12 abstract view
.subckt sky130_fd_sc_hd__decap_12 VGND VNB VPB VPWR
.ends

* Black-box entry subcircuit for sky130_fd_sc_hd__decap_4 abstract view
.subckt sky130_fd_sc_hd__decap_4 VGND VNB VPB VPWR
.ends

* Black-box entry subcircuit for sky130_fd_sc_hd__decap_8 abstract view
.subckt sky130_fd_sc_hd__decap_8 VGND VNB VPB VPWR
.ends

* Black-box entry subcircuit for sky130_fd_sc_hd__fill_2 abstract view
.subckt sky130_fd_sc_hd__fill_2 VGND VNB VPB VPWR
.ends

* Black-box entry subcircuit for sky130_fd_sc_hd__tapvpwrvgnd_1 abstract view
.subckt sky130_fd_sc_hd__tapvpwrvgnd_1 VGND VPWR
.ends

* Black-box entry subcircuit for sky130_fd_sc_hd__decap_6 abstract view
.subckt sky130_fd_sc_hd__decap_6 VGND VNB VPB VPWR
.ends

* Black-box entry subcircuit for sky130_fd_sc_hd__diode_2 abstract view
.subckt sky130_fd_sc_hd__diode_2 DIODE VGND VNB VPB VPWR
.ends

* Black-box entry subcircuit for sky130_fd_sc_hd__decap_3 abstract view
.subckt sky130_fd_sc_hd__decap_3 VGND VNB VPB VPWR
.ends

* Black-box entry subcircuit for sky130_fd_sc_hd__buf_2 abstract view
.subckt sky130_fd_sc_hd__buf_2 A X VGND VNB VPB VPWR
.ends

* Black-box entry subcircuit for sky130_fd_sc_hd__buf_1 abstract view
.subckt sky130_fd_sc_hd__buf_1 A X VGND VNB VPB VPWR
.ends

* Black-box entry subcircuit for sky130_fd_sc_hd__conb_1 abstract view
.subckt sky130_fd_sc_hd__conb_1 HI LO VGND VNB VPB VPWR
.ends

* Black-box entry subcircuit for sky130_fd_sc_hd__mux2_1 abstract view
.subckt sky130_fd_sc_hd__mux2_1 A0 A1 S X VGND VNB VPB VPWR
.ends

* Black-box entry subcircuit for sky130_fd_sc_hd__dfxbp_1 abstract view
.subckt sky130_fd_sc_hd__dfxbp_1 D Q Q_N CLK VGND VNB VPB VPWR
.ends

.subckt cbx_1__2_ ccff_head ccff_tail chanx_left_in[0] chanx_left_in[10] chanx_left_in[11]
+ chanx_left_in[12] chanx_left_in[13] chanx_left_in[14] chanx_left_in[15] chanx_left_in[16]
+ chanx_left_in[17] chanx_left_in[18] chanx_left_in[19] chanx_left_in[1] chanx_left_in[2]
+ chanx_left_in[3] chanx_left_in[4] chanx_left_in[5] chanx_left_in[6] chanx_left_in[7]
+ chanx_left_in[8] chanx_left_in[9] chanx_left_out[0] chanx_left_out[10] chanx_left_out[11]
+ chanx_left_out[12] chanx_left_out[13] chanx_left_out[14] chanx_left_out[15] chanx_left_out[16]
+ chanx_left_out[17] chanx_left_out[18] chanx_left_out[19] chanx_left_out[1] chanx_left_out[2]
+ chanx_left_out[3] chanx_left_out[4] chanx_left_out[5] chanx_left_out[6] chanx_left_out[7]
+ chanx_left_out[8] chanx_left_out[9] chanx_right_in[0] chanx_right_in[10] chanx_right_in[11]
+ chanx_right_in[12] chanx_right_in[13] chanx_right_in[14] chanx_right_in[15] chanx_right_in[16]
+ chanx_right_in[17] chanx_right_in[18] chanx_right_in[19] chanx_right_in[1] chanx_right_in[2]
+ chanx_right_in[3] chanx_right_in[4] chanx_right_in[5] chanx_right_in[6] chanx_right_in[7]
+ chanx_right_in[8] chanx_right_in[9] chanx_right_out[0] chanx_right_out[10] chanx_right_out[11]
+ chanx_right_out[12] chanx_right_out[13] chanx_right_out[14] chanx_right_out[15]
+ chanx_right_out[16] chanx_right_out[17] chanx_right_out[18] chanx_right_out[19]
+ chanx_right_out[1] chanx_right_out[2] chanx_right_out[3] chanx_right_out[4] chanx_right_out[5]
+ chanx_right_out[6] chanx_right_out[7] chanx_right_out[8] chanx_right_out[9] prog_clk
+ top_grid_pin_0_ VPWR VGND
XFILLER_22_188 VGND VGND VPWR VPWR sky130_fd_sc_hd__fill_1
XFILLER_3_56 VGND VGND VPWR VPWR sky130_fd_sc_hd__decap_12
XFILLER_13_166 VGND VGND VPWR VPWR sky130_fd_sc_hd__decap_12
XFILLER_26_74 VGND VGND VPWR VPWR sky130_fd_sc_hd__decap_12
XFILLER_35_280 VGND VGND VPWR VPWR sky130_fd_sc_hd__decap_12
XFILLER_27_247 VGND VGND VPWR VPWR sky130_fd_sc_hd__fill_1
XFILLER_6_129 VGND VGND VPWR VPWR sky130_fd_sc_hd__decap_12
XFILLER_10_147 VGND VGND VPWR VPWR sky130_fd_sc_hd__decap_12
XFILLER_12_43 VGND VGND VPWR VPWR sky130_fd_sc_hd__decap_12
XFILLER_12_98 VGND VGND VPWR VPWR sky130_fd_sc_hd__decap_12
XFILLER_18_269 VGND VGND VPWR VPWR sky130_fd_sc_hd__decap_12
XFILLER_33_239 VGND VGND VPWR VPWR sky130_fd_sc_hd__decap_12
XFILLER_24_239 VGND VGND VPWR VPWR sky130_fd_sc_hd__decap_4
XFILLER_15_239 VGND VGND VPWR VPWR sky130_fd_sc_hd__decap_8
XFILLER_23_250 VGND VGND VPWR VPWR sky130_fd_sc_hd__decap_12
XFILLER_2_110 VGND VGND VPWR VPWR sky130_fd_sc_hd__decap_12
XFILLER_9_44 VGND VGND VPWR VPWR sky130_fd_sc_hd__decap_12
XFILLER_7_202 VGND VGND VPWR VPWR sky130_fd_sc_hd__decap_12
XFILLER_18_31 VGND VGND VPWR VPWR sky130_fd_sc_hd__decap_12
XFILLER_34_74 VGND VGND VPWR VPWR sky130_fd_sc_hd__decap_12
XFILLER_29_117 VGND VGND VPWR VPWR sky130_fd_sc_hd__decap_12
XFILLER_20_43 VGND VGND VPWR VPWR sky130_fd_sc_hd__decap_12
XFILLER_20_98 VGND VGND VPWR VPWR sky130_fd_sc_hd__decap_12
XFILLER_6_56 VGND VGND VPWR VPWR sky130_fd_sc_hd__decap_4
XFILLER_15_32 VGND VGND VPWR VPWR sky130_fd_sc_hd__decap_12
XFILLER_15_87 VGND VGND VPWR VPWR sky130_fd_sc_hd__decap_4
XFILLER_25_131 VGND VGND VPWR VPWR sky130_fd_sc_hd__fill_2
XPHY_170 VGND VPWR sky130_fd_sc_hd__tapvpwrvgnd_1
XPHY_181 VGND VPWR sky130_fd_sc_hd__tapvpwrvgnd_1
XPHY_192 VGND VPWR sky130_fd_sc_hd__tapvpwrvgnd_1
XFILLER_0_230 VGND VGND VPWR VPWR sky130_fd_sc_hd__decap_12
XFILLER_31_178 VGND VGND VPWR VPWR sky130_fd_sc_hd__decap_12
XFILLER_22_123 VGND VGND VPWR VPWR sky130_fd_sc_hd__decap_12
XFILLER_3_68 VGND VGND VPWR VPWR sky130_fd_sc_hd__decap_12
XFILLER_9_105 VGND VGND VPWR VPWR sky130_fd_sc_hd__decap_12
XFILLER_13_178 VGND VGND VPWR VPWR sky130_fd_sc_hd__decap_12
XFILLER_26_86 VGND VGND VPWR VPWR sky130_fd_sc_hd__decap_12
XFILLER_27_215 VGND VGND VPWR VPWR sky130_fd_sc_hd__decap_12
XFILLER_10_159 VGND VGND VPWR VPWR sky130_fd_sc_hd__decap_12
XFILLER_12_55 VGND VGND VPWR VPWR sky130_fd_sc_hd__decap_6
XFILLER_35_292 VGND VGND VPWR VPWR sky130_fd_sc_hd__decap_6
XFILLER_5_141 VGND VGND VPWR VPWR sky130_fd_sc_hd__fill_2
XFILLER_26_281 VGND VGND VPWR VPWR sky130_fd_sc_hd__decap_12
XFILLER_23_262 VGND VGND VPWR VPWR sky130_fd_sc_hd__decap_12
XFILLER_23_32 VGND VGND VPWR VPWR sky130_fd_sc_hd__decap_12
XFILLER_9_56 VGND VGND VPWR VPWR sky130_fd_sc_hd__decap_12
XFILLER_20_243 VGND VGND VPWR VPWR sky130_fd_sc_hd__fill_1
XFILLER_7_247 VGND VGND VPWR VPWR sky130_fd_sc_hd__fill_1
XFILLER_11_276 VGND VGND VPWR VPWR sky130_fd_sc_hd__decap_12
XFILLER_18_43 VGND VGND VPWR VPWR sky130_fd_sc_hd__decap_12
XFILLER_34_86 VGND VGND VPWR VPWR sky130_fd_sc_hd__decap_12
XFILLER_15_7 VGND VGND VPWR VPWR sky130_fd_sc_hd__fill_2
XFILLER_4_217 VGND VGND VPWR VPWR sky130_fd_sc_hd__decap_12
XFILLER_20_55 VGND VGND VPWR VPWR sky130_fd_sc_hd__decap_6
XFILLER_29_129 VGND VGND VPWR VPWR sky130_fd_sc_hd__decap_12
XFILLER_19_151 VGND VGND VPWR VPWR sky130_fd_sc_hd__fill_2
XFILLER_34_110 VGND VGND VPWR VPWR sky130_fd_sc_hd__decap_12
XFILLER_28_184 VGND VGND VPWR VPWR sky130_fd_sc_hd__decap_12
XANTENNA_mem_bottom_ipin_0.sky130_fd_sc_hd__dfxbp_1_2__CLK prog_clk VGND VGND VPWR
+ VPWR sky130_fd_sc_hd__diode_2
XFILLER_15_11 VGND VGND VPWR VPWR sky130_fd_sc_hd__fill_2
XFILLER_15_44 VGND VGND VPWR VPWR sky130_fd_sc_hd__decap_12
XFILLER_15_66 VGND VGND VPWR VPWR sky130_fd_sc_hd__fill_2
XFILLER_25_154 VGND VGND VPWR VPWR sky130_fd_sc_hd__decap_12
XPHY_160 VGND VPWR sky130_fd_sc_hd__tapvpwrvgnd_1
XPHY_171 VGND VPWR sky130_fd_sc_hd__tapvpwrvgnd_1
XPHY_182 VGND VPWR sky130_fd_sc_hd__tapvpwrvgnd_1
XPHY_193 VGND VPWR sky130_fd_sc_hd__tapvpwrvgnd_1
XFILLER_0_242 VGND VGND VPWR VPWR sky130_fd_sc_hd__decap_6
XFILLER_0_253 VGND VGND VPWR VPWR sky130_fd_sc_hd__fill_2
XFILLER_16_121 VGND VGND VPWR VPWR sky130_fd_sc_hd__fill_1
XFILLER_31_32 VGND VGND VPWR VPWR sky130_fd_sc_hd__decap_12
XFILLER_22_135 VGND VGND VPWR VPWR sky130_fd_sc_hd__decap_12
XFILLER_9_117 VGND VGND VPWR VPWR sky130_fd_sc_hd__decap_12
XFILLER_21_190 VGND VGND VPWR VPWR sky130_fd_sc_hd__decap_4
XFILLER_26_98 VGND VGND VPWR VPWR sky130_fd_sc_hd__decap_12
XFILLER_27_227 VGND VGND VPWR VPWR sky130_fd_sc_hd__decap_12
XFILLER_27_205 VGND VGND VPWR VPWR sky130_fd_sc_hd__decap_8
XFILLER_26_293 VGND VGND VPWR VPWR sky130_fd_sc_hd__decap_6
XFILLER_2_123 VGND VGND VPWR VPWR sky130_fd_sc_hd__decap_12
XFILLER_3_3 VGND VGND VPWR VPWR sky130_fd_sc_hd__decap_12
XFILLER_23_296 VGND VGND VPWR VPWR sky130_fd_sc_hd__decap_3
XFILLER_23_274 VGND VGND VPWR VPWR sky130_fd_sc_hd__fill_1
XFILLER_23_44 VGND VGND VPWR VPWR sky130_fd_sc_hd__decap_12
XFILLER_9_68 VGND VGND VPWR VPWR sky130_fd_sc_hd__decap_12
XFILLER_20_211 VGND VGND VPWR VPWR sky130_fd_sc_hd__decap_12
XFILLER_7_215 VGND VGND VPWR VPWR sky130_fd_sc_hd__decap_12
XFILLER_11_288 VGND VGND VPWR VPWR sky130_fd_sc_hd__decap_8
XFILLER_18_55 VGND VGND VPWR VPWR sky130_fd_sc_hd__decap_6
XFILLER_34_98 VGND VGND VPWR VPWR sky130_fd_sc_hd__decap_12
XANTENNA_mux_bottom_ipin_0.mux_l1_in_0__S mux_bottom_ipin_0.mux_l1_in_2_/S VGND VGND
+ VPWR VPWR sky130_fd_sc_hd__diode_2
XFILLER_6_281 VGND VGND VPWR VPWR sky130_fd_sc_hd__decap_12
XFILLER_1_80 VGND VGND VPWR VPWR sky130_fd_sc_hd__decap_12
XFILLER_4_229 VGND VGND VPWR VPWR sky130_fd_sc_hd__decap_12
XFILLER_29_87 VGND VGND VPWR VPWR sky130_fd_sc_hd__decap_4
XFILLER_29_32 VGND VGND VPWR VPWR sky130_fd_sc_hd__decap_12
XFILLER_28_196 VGND VGND VPWR VPWR sky130_fd_sc_hd__decap_12
XANTENNA__04__A chanx_left_in[12] VGND VGND VPWR VPWR sky130_fd_sc_hd__diode_2
XFILLER_0_265 VGND VGND VPWR VPWR sky130_fd_sc_hd__fill_2
XFILLER_0_298 VGND VGND VPWR VPWR sky130_fd_sc_hd__fill_1
XFILLER_15_56 VGND VGND VPWR VPWR sky130_fd_sc_hd__decap_8
XFILLER_31_44 VGND VGND VPWR VPWR sky130_fd_sc_hd__decap_12
XFILLER_25_166 VGND VGND VPWR VPWR sky130_fd_sc_hd__decap_12
XPHY_150 VGND VPWR sky130_fd_sc_hd__tapvpwrvgnd_1
XPHY_161 VGND VPWR sky130_fd_sc_hd__tapvpwrvgnd_1
XPHY_172 VGND VPWR sky130_fd_sc_hd__tapvpwrvgnd_1
XPHY_183 VGND VPWR sky130_fd_sc_hd__tapvpwrvgnd_1
XPHY_194 VGND VPWR sky130_fd_sc_hd__tapvpwrvgnd_1
XFILLER_22_147 VGND VGND VPWR VPWR sky130_fd_sc_hd__decap_12
XFILLER_9_129 VGND VGND VPWR VPWR sky130_fd_sc_hd__decap_12
XFILLER_3_15 VGND VGND VPWR VPWR sky130_fd_sc_hd__decap_12
XFILLER_8_151 VGND VGND VPWR VPWR sky130_fd_sc_hd__decap_12
XFILLER_8_184 VGND VGND VPWR VPWR sky130_fd_sc_hd__decap_12
XFILLER_35_261 VGND VGND VPWR VPWR sky130_fd_sc_hd__decap_12
XFILLER_27_239 VGND VGND VPWR VPWR sky130_fd_sc_hd__decap_8
XFILLER_5_154 VGND VGND VPWR VPWR sky130_fd_sc_hd__decap_12
XFILLER_32_220 VGND VGND VPWR VPWR sky130_fd_sc_hd__decap_12
XANTENNA__12__A chanx_left_in[4] VGND VGND VPWR VPWR sky130_fd_sc_hd__diode_2
XFILLER_2_135 VGND VGND VPWR VPWR sky130_fd_sc_hd__decap_12
XFILLER_23_56 VGND VGND VPWR VPWR sky130_fd_sc_hd__decap_12
XFILLER_1_190 VGND VGND VPWR VPWR sky130_fd_sc_hd__decap_12
XFILLER_14_220 VGND VGND VPWR VPWR sky130_fd_sc_hd__decap_12
XFILLER_29_3 VGND VGND VPWR VPWR sky130_fd_sc_hd__decap_12
XANTENNA__07__A chanx_left_in[9] VGND VGND VPWR VPWR sky130_fd_sc_hd__diode_2
XFILLER_20_223 VGND VGND VPWR VPWR sky130_fd_sc_hd__decap_12
XFILLER_20_245 VGND VGND VPWR VPWR sky130_fd_sc_hd__decap_12
XFILLER_7_227 VGND VGND VPWR VPWR sky130_fd_sc_hd__decap_12
XFILLER_11_245 VGND VGND VPWR VPWR sky130_fd_sc_hd__fill_1
XFILLER_11_256 VGND VGND VPWR VPWR sky130_fd_sc_hd__decap_12
X_29_ chanx_right_in[7] chanx_left_out[7] VGND VGND VPWR VPWR sky130_fd_sc_hd__buf_2
XFILLER_4_208 VGND VGND VPWR VPWR sky130_fd_sc_hd__decap_4
XFILLER_6_293 VGND VGND VPWR VPWR sky130_fd_sc_hd__decap_6
XFILLER_3_241 VGND VGND VPWR VPWR sky130_fd_sc_hd__decap_6
XFILLER_3_252 VGND VGND VPWR VPWR sky130_fd_sc_hd__fill_2
XFILLER_6_15 VGND VGND VPWR VPWR sky130_fd_sc_hd__decap_12
XFILLER_29_44 VGND VGND VPWR VPWR sky130_fd_sc_hd__decap_12
Xmux_bottom_ipin_0.sky130_fd_sc_hd__buf_4_0_ mux_bottom_ipin_0.mux_l4_in_0_/X top_grid_pin_0_
+ VGND VGND VPWR VPWR sky130_fd_sc_hd__buf_1
XFILLER_3_274 VGND VGND VPWR VPWR sky130_fd_sc_hd__fill_1
XFILLER_3_296 VGND VGND VPWR VPWR sky130_fd_sc_hd__decap_3
XFILLER_20_7 VGND VGND VPWR VPWR sky130_fd_sc_hd__decap_12
XFILLER_34_123 VGND VGND VPWR VPWR sky130_fd_sc_hd__decap_12
XANTENNA__20__A chanx_right_in[16] VGND VGND VPWR VPWR sky130_fd_sc_hd__diode_2
XFILLER_0_211 VGND VGND VPWR VPWR sky130_fd_sc_hd__decap_6
XFILLER_0_277 VGND VGND VPWR VPWR sky130_fd_sc_hd__fill_2
XFILLER_31_56 VGND VGND VPWR VPWR sky130_fd_sc_hd__decap_12
XFILLER_25_178 VGND VGND VPWR VPWR sky130_fd_sc_hd__decap_12
XPHY_140 VGND VPWR sky130_fd_sc_hd__tapvpwrvgnd_1
XPHY_151 VGND VPWR sky130_fd_sc_hd__tapvpwrvgnd_1
XPHY_162 VGND VPWR sky130_fd_sc_hd__tapvpwrvgnd_1
XPHY_173 VGND VPWR sky130_fd_sc_hd__tapvpwrvgnd_1
XPHY_184 VGND VPWR sky130_fd_sc_hd__tapvpwrvgnd_1
XPHY_195 VGND VPWR sky130_fd_sc_hd__tapvpwrvgnd_1
XFILLER_11_3 VGND VGND VPWR VPWR sky130_fd_sc_hd__fill_2
XFILLER_16_123 VGND VGND VPWR VPWR sky130_fd_sc_hd__decap_12
XFILLER_7_80 VGND VGND VPWR VPWR sky130_fd_sc_hd__decap_12
XFILLER_22_159 VGND VGND VPWR VPWR sky130_fd_sc_hd__decap_12
XFILLER_30_181 VGND VGND VPWR VPWR sky130_fd_sc_hd__fill_2
XANTENNA__15__A chanx_left_in[1] VGND VGND VPWR VPWR sky130_fd_sc_hd__diode_2
XFILLER_3_27 VGND VGND VPWR VPWR sky130_fd_sc_hd__decap_4
XFILLER_8_163 VGND VGND VPWR VPWR sky130_fd_sc_hd__decap_12
XFILLER_8_196 VGND VGND VPWR VPWR sky130_fd_sc_hd__decap_12
XFILLER_35_273 VGND VGND VPWR VPWR sky130_fd_sc_hd__decap_6
XFILLER_5_166 VGND VGND VPWR VPWR sky130_fd_sc_hd__decap_12
XFILLER_32_232 VGND VGND VPWR VPWR sky130_fd_sc_hd__decap_12
XFILLER_2_147 VGND VGND VPWR VPWR sky130_fd_sc_hd__decap_12
XFILLER_23_276 VGND VGND VPWR VPWR sky130_fd_sc_hd__decap_12
XFILLER_23_210 VGND VGND VPWR VPWR sky130_fd_sc_hd__decap_4
XFILLER_23_68 VGND VGND VPWR VPWR sky130_fd_sc_hd__decap_12
XFILLER_9_15 VGND VGND VPWR VPWR sky130_fd_sc_hd__decap_12
XFILLER_14_232 VGND VGND VPWR VPWR sky130_fd_sc_hd__decap_12
XFILLER_20_235 VGND VGND VPWR VPWR sky130_fd_sc_hd__decap_8
XFILLER_20_257 VGND VGND VPWR VPWR sky130_fd_sc_hd__decap_12
XANTENNA__23__A chanx_right_in[13] VGND VGND VPWR VPWR sky130_fd_sc_hd__diode_2
XFILLER_7_239 VGND VGND VPWR VPWR sky130_fd_sc_hd__decap_8
XFILLER_11_202 VGND VGND VPWR VPWR sky130_fd_sc_hd__decap_12
XFILLER_11_268 VGND VGND VPWR VPWR sky130_fd_sc_hd__decap_6
X_28_ chanx_right_in[8] chanx_left_out[8] VGND VGND VPWR VPWR sky130_fd_sc_hd__buf_2
XFILLER_1_93 VGND VGND VPWR VPWR sky130_fd_sc_hd__decap_12
XANTENNA__18__A chanx_right_in[18] VGND VGND VPWR VPWR sky130_fd_sc_hd__diode_2
XFILLER_29_56 VGND VGND VPWR VPWR sky130_fd_sc_hd__decap_12
XFILLER_28_110 VGND VGND VPWR VPWR sky130_fd_sc_hd__decap_12
XFILLER_6_27 VGND VGND VPWR VPWR sky130_fd_sc_hd__decap_12
XFILLER_13_7 VGND VGND VPWR VPWR sky130_fd_sc_hd__fill_2
XFILLER_19_143 VGND VGND VPWR VPWR sky130_fd_sc_hd__decap_8
XFILLER_19_154 VGND VGND VPWR VPWR sky130_fd_sc_hd__decap_12
XFILLER_34_135 VGND VGND VPWR VPWR sky130_fd_sc_hd__decap_12
XFILLER_33_190 VGND VGND VPWR VPWR sky130_fd_sc_hd__decap_12
XFILLER_31_68 VGND VGND VPWR VPWR sky130_fd_sc_hd__decap_12
XFILLER_25_135 VGND VGND VPWR VPWR sky130_fd_sc_hd__decap_12
XPHY_130 VGND VPWR sky130_fd_sc_hd__tapvpwrvgnd_1
XPHY_141 VGND VPWR sky130_fd_sc_hd__tapvpwrvgnd_1
XPHY_152 VGND VPWR sky130_fd_sc_hd__tapvpwrvgnd_1
XPHY_163 VGND VPWR sky130_fd_sc_hd__tapvpwrvgnd_1
XPHY_174 VGND VPWR sky130_fd_sc_hd__tapvpwrvgnd_1
XPHY_185 VGND VPWR sky130_fd_sc_hd__tapvpwrvgnd_1
XPHY_196 VGND VPWR sky130_fd_sc_hd__tapvpwrvgnd_1
XFILLER_16_135 VGND VGND VPWR VPWR sky130_fd_sc_hd__decap_12
XFILLER_31_105 VGND VGND VPWR VPWR sky130_fd_sc_hd__decap_12
XFILLER_15_190 VGND VGND VPWR VPWR sky130_fd_sc_hd__decap_12
XANTENNA__31__A chanx_right_in[5] VGND VGND VPWR VPWR sky130_fd_sc_hd__diode_2
XFILLER_13_105 VGND VGND VPWR VPWR sky130_fd_sc_hd__decap_12
XFILLER_8_175 VGND VGND VPWR VPWR sky130_fd_sc_hd__decap_8
XFILLER_12_171 VGND VGND VPWR VPWR sky130_fd_sc_hd__decap_12
XFILLER_35_230 VGND VGND VPWR VPWR sky130_fd_sc_hd__decap_12
XANTENNA__26__A chanx_right_in[10] VGND VGND VPWR VPWR sky130_fd_sc_hd__diode_2
XFILLER_18_208 VGND VGND VPWR VPWR sky130_fd_sc_hd__decap_12
XFILLER_5_145 VGND VGND VPWR VPWR sky130_fd_sc_hd__decap_8
XFILLER_5_178 VGND VGND VPWR VPWR sky130_fd_sc_hd__decap_12
XFILLER_17_252 VGND VGND VPWR VPWR sky130_fd_sc_hd__fill_2
XFILLER_17_274 VGND VGND VPWR VPWR sky130_fd_sc_hd__fill_1
XFILLER_17_296 VGND VGND VPWR VPWR sky130_fd_sc_hd__decap_3
XFILLER_23_288 VGND VGND VPWR VPWR sky130_fd_sc_hd__decap_8
XFILLER_2_159 VGND VGND VPWR VPWR sky130_fd_sc_hd__decap_12
XFILLER_9_27 VGND VGND VPWR VPWR sky130_fd_sc_hd__decap_4
XFILLER_13_80 VGND VGND VPWR VPWR sky130_fd_sc_hd__decap_12
XFILLER_20_269 VGND VGND VPWR VPWR sky130_fd_sc_hd__decap_12
XANTENNA_mux_bottom_ipin_0.mux_l2_in_1__S mux_bottom_ipin_0.mux_l2_in_2_/S VGND VGND
+ VPWR VPWR sky130_fd_sc_hd__diode_2
X_27_ chanx_right_in[9] chanx_left_out[9] VGND VGND VPWR VPWR sky130_fd_sc_hd__buf_2
XFILLER_34_3 VGND VGND VPWR VPWR sky130_fd_sc_hd__decap_12
XFILLER_29_68 VGND VGND VPWR VPWR sky130_fd_sc_hd__decap_12
XANTENNA__34__A chanx_right_in[2] VGND VGND VPWR VPWR sky130_fd_sc_hd__diode_2
XFILLER_3_276 VGND VGND VPWR VPWR sky130_fd_sc_hd__decap_12
XFILLER_6_39 VGND VGND VPWR VPWR sky130_fd_sc_hd__fill_1
XFILLER_19_166 VGND VGND VPWR VPWR sky130_fd_sc_hd__decap_12
XFILLER_34_147 VGND VGND VPWR VPWR sky130_fd_sc_hd__decap_12
XFILLER_15_15 VGND VGND VPWR VPWR sky130_fd_sc_hd__decap_12
XFILLER_25_147 VGND VGND VPWR VPWR sky130_fd_sc_hd__decap_6
XPHY_120 VGND VPWR sky130_fd_sc_hd__tapvpwrvgnd_1
XPHY_131 VGND VPWR sky130_fd_sc_hd__tapvpwrvgnd_1
XPHY_142 VGND VPWR sky130_fd_sc_hd__tapvpwrvgnd_1
XPHY_153 VGND VPWR sky130_fd_sc_hd__tapvpwrvgnd_1
XPHY_164 VGND VPWR sky130_fd_sc_hd__tapvpwrvgnd_1
XPHY_175 VGND VPWR sky130_fd_sc_hd__tapvpwrvgnd_1
XPHY_186 VGND VPWR sky130_fd_sc_hd__tapvpwrvgnd_1
XPHY_197 VGND VPWR sky130_fd_sc_hd__tapvpwrvgnd_1
XANTENNA__29__A chanx_right_in[7] VGND VGND VPWR VPWR sky130_fd_sc_hd__diode_2
XFILLER_0_257 VGND VGND VPWR VPWR sky130_fd_sc_hd__decap_4
XFILLER_16_147 VGND VGND VPWR VPWR sky130_fd_sc_hd__decap_12
XFILLER_21_80 VGND VGND VPWR VPWR sky130_fd_sc_hd__decap_12
XFILLER_31_117 VGND VGND VPWR VPWR sky130_fd_sc_hd__decap_12
XFILLER_24_191 VGND VGND VPWR VPWR sky130_fd_sc_hd__decap_12
XPHY_0 VGND VGND VPWR VPWR sky130_fd_sc_hd__decap_3
XFILLER_7_93 VGND VGND VPWR VPWR sky130_fd_sc_hd__decap_12
XFILLER_13_117 VGND VGND VPWR VPWR sky130_fd_sc_hd__decap_12
XFILLER_21_194 VGND VGND VPWR VPWR sky130_fd_sc_hd__fill_1
XFILLER_8_110 VGND VGND VPWR VPWR sky130_fd_sc_hd__decap_12
XFILLER_35_242 VGND VGND VPWR VPWR sky130_fd_sc_hd__decap_6
XFILLER_5_135 VGND VGND VPWR VPWR sky130_fd_sc_hd__fill_2
XFILLER_32_245 VGND VGND VPWR VPWR sky130_fd_sc_hd__decap_12
XFILLER_23_15 VGND VGND VPWR VPWR sky130_fd_sc_hd__decap_12
XANTENNA__37__A chanx_left_in[19] VGND VGND VPWR VPWR sky130_fd_sc_hd__diode_2
XFILLER_14_245 VGND VGND VPWR VPWR sky130_fd_sc_hd__decap_12
XANTENNA_mux_bottom_ipin_0.mux_l1_in_1__A0 chanx_right_in[2] VGND VGND VPWR VPWR sky130_fd_sc_hd__diode_2
XFILLER_11_215 VGND VGND VPWR VPWR sky130_fd_sc_hd__decap_12
XFILLER_27_3 VGND VGND VPWR VPWR sky130_fd_sc_hd__decap_12
XFILLER_24_91 VGND VGND VPWR VPWR sky130_fd_sc_hd__decap_12
X_26_ chanx_right_in[10] chanx_left_out[10] VGND VGND VPWR VPWR sky130_fd_sc_hd__buf_2
XFILLER_28_123 VGND VGND VPWR VPWR sky130_fd_sc_hd__decap_12
XANTENNA_mux_bottom_ipin_0.mux_l2_in_0__A0 mux_bottom_ipin_0.mux_l1_in_1_/X VGND VGND
+ VPWR VPWR sky130_fd_sc_hd__diode_2
XFILLER_3_211 VGND VGND VPWR VPWR sky130_fd_sc_hd__decap_3
XFILLER_3_288 VGND VGND VPWR VPWR sky130_fd_sc_hd__decap_8
XFILLER_19_80 VGND VGND VPWR VPWR sky130_fd_sc_hd__decap_12
XFILLER_19_178 VGND VGND VPWR VPWR sky130_fd_sc_hd__decap_12
X_09_ chanx_left_in[7] chanx_right_out[7] VGND VGND VPWR VPWR sky130_fd_sc_hd__buf_2
XFILLER_15_27 VGND VGND VPWR VPWR sky130_fd_sc_hd__decap_4
XFILLER_34_159 VGND VGND VPWR VPWR sky130_fd_sc_hd__decap_12
XPHY_110 VGND VPWR sky130_fd_sc_hd__tapvpwrvgnd_1
XPHY_121 VGND VPWR sky130_fd_sc_hd__tapvpwrvgnd_1
XPHY_132 VGND VPWR sky130_fd_sc_hd__tapvpwrvgnd_1
XPHY_143 VGND VPWR sky130_fd_sc_hd__tapvpwrvgnd_1
XPHY_154 VGND VPWR sky130_fd_sc_hd__tapvpwrvgnd_1
XPHY_165 VGND VPWR sky130_fd_sc_hd__tapvpwrvgnd_1
XPHY_176 VGND VPWR sky130_fd_sc_hd__tapvpwrvgnd_1
XPHY_187 VGND VPWR sky130_fd_sc_hd__tapvpwrvgnd_1
XPHY_198 VGND VPWR sky130_fd_sc_hd__tapvpwrvgnd_1
XFILLER_0_269 VGND VGND VPWR VPWR sky130_fd_sc_hd__decap_8
XFILLER_16_159 VGND VGND VPWR VPWR sky130_fd_sc_hd__decap_12
XFILLER_31_129 VGND VGND VPWR VPWR sky130_fd_sc_hd__decap_12
XFILLER_31_15 VGND VGND VPWR VPWR sky130_fd_sc_hd__decap_12
XPHY_1 VGND VGND VPWR VPWR sky130_fd_sc_hd__decap_3
XFILLER_30_184 VGND VGND VPWR VPWR sky130_fd_sc_hd__decap_12
XFILLER_30_173 VGND VGND VPWR VPWR sky130_fd_sc_hd__decap_8
XFILLER_13_129 VGND VGND VPWR VPWR sky130_fd_sc_hd__decap_12
XFILLER_26_59 VGND VGND VPWR VPWR sky130_fd_sc_hd__fill_2
XFILLER_26_15 VGND VGND VPWR VPWR sky130_fd_sc_hd__decap_12
XFILLER_12_184 VGND VGND VPWR VPWR sky130_fd_sc_hd__decap_12
XFILLER_16_70 VGND VGND VPWR VPWR sky130_fd_sc_hd__fill_2
XFILLER_16_81 VGND VGND VPWR VPWR sky130_fd_sc_hd__decap_12
XFILLER_29_262 VGND VGND VPWR VPWR sky130_fd_sc_hd__decap_12
XFILLER_35_298 VGND VGND VPWR VPWR sky130_fd_sc_hd__fill_1
XFILLER_4_51 VGND VGND VPWR VPWR sky130_fd_sc_hd__decap_8
XFILLER_4_62 VGND VGND VPWR VPWR sky130_fd_sc_hd__decap_12
XFILLER_17_276 VGND VGND VPWR VPWR sky130_fd_sc_hd__decap_12
XFILLER_32_257 VGND VGND VPWR VPWR sky130_fd_sc_hd__decap_12
XFILLER_27_80 VGND VGND VPWR VPWR sky130_fd_sc_hd__decap_12
XFILLER_14_257 VGND VGND VPWR VPWR sky130_fd_sc_hd__decap_12
XFILLER_23_27 VGND VGND VPWR VPWR sky130_fd_sc_hd__decap_4
XANTENNA_mux_bottom_ipin_0.mux_l1_in_1__A1 chanx_left_in[2] VGND VGND VPWR VPWR sky130_fd_sc_hd__diode_2
XFILLER_9_250 VGND VGND VPWR VPWR sky130_fd_sc_hd__decap_12
XFILLER_13_93 VGND VGND VPWR VPWR sky130_fd_sc_hd__decap_12
XFILLER_11_227 VGND VGND VPWR VPWR sky130_fd_sc_hd__decap_12
XFILLER_34_15 VGND VGND VPWR VPWR sky130_fd_sc_hd__decap_12
XFILLER_34_59 VGND VGND VPWR VPWR sky130_fd_sc_hd__fill_2
XFILLER_6_220 VGND VGND VPWR VPWR sky130_fd_sc_hd__decap_12
X_25_ chanx_right_in[11] chanx_left_out[11] VGND VGND VPWR VPWR sky130_fd_sc_hd__buf_2
XFILLER_29_15 VGND VGND VPWR VPWR sky130_fd_sc_hd__decap_12
XANTENNA_mux_bottom_ipin_0.mux_l2_in_0__A1 mux_bottom_ipin_0.mux_l1_in_0_/X VGND VGND
+ VPWR VPWR sky130_fd_sc_hd__diode_2
XFILLER_3_256 VGND VGND VPWR VPWR sky130_fd_sc_hd__decap_12
XFILLER_28_135 VGND VGND VPWR VPWR sky130_fd_sc_hd__decap_12
X_08_ chanx_left_in[8] chanx_right_out[8] VGND VGND VPWR VPWR sky130_fd_sc_hd__buf_2
XFILLER_25_105 VGND VGND VPWR VPWR sky130_fd_sc_hd__decap_12
XPHY_100 VGND VPWR sky130_fd_sc_hd__tapvpwrvgnd_1
XFILLER_16_105 VGND VGND VPWR VPWR sky130_fd_sc_hd__decap_12
XFILLER_31_27 VGND VGND VPWR VPWR sky130_fd_sc_hd__decap_4
XPHY_2 VGND VGND VPWR VPWR sky130_fd_sc_hd__decap_3
XPHY_111 VGND VPWR sky130_fd_sc_hd__tapvpwrvgnd_1
XPHY_122 VGND VPWR sky130_fd_sc_hd__tapvpwrvgnd_1
XPHY_133 VGND VPWR sky130_fd_sc_hd__tapvpwrvgnd_1
XPHY_144 VGND VPWR sky130_fd_sc_hd__tapvpwrvgnd_1
XPHY_155 VGND VPWR sky130_fd_sc_hd__tapvpwrvgnd_1
XPHY_166 VGND VPWR sky130_fd_sc_hd__tapvpwrvgnd_1
XPHY_177 VGND VPWR sky130_fd_sc_hd__tapvpwrvgnd_1
XPHY_188 VGND VPWR sky130_fd_sc_hd__tapvpwrvgnd_1
XPHY_199 VGND VPWR sky130_fd_sc_hd__tapvpwrvgnd_1
XFILLER_11_7 VGND VGND VPWR VPWR sky130_fd_sc_hd__decap_12
XFILLER_21_93 VGND VGND VPWR VPWR sky130_fd_sc_hd__decap_12
XFILLER_24_171 VGND VGND VPWR VPWR sky130_fd_sc_hd__decap_12
XFILLER_21_141 VGND VGND VPWR VPWR sky130_fd_sc_hd__decap_12
XFILLER_30_196 VGND VGND VPWR VPWR sky130_fd_sc_hd__decap_12
XFILLER_26_27 VGND VGND VPWR VPWR sky130_fd_sc_hd__decap_12
XFILLER_8_123 VGND VGND VPWR VPWR sky130_fd_sc_hd__decap_12
XFILLER_12_196 VGND VGND VPWR VPWR sky130_fd_sc_hd__decap_12
XFILLER_16_93 VGND VGND VPWR VPWR sky130_fd_sc_hd__decap_12
XFILLER_29_296 VGND VGND VPWR VPWR sky130_fd_sc_hd__decap_3
XFILLER_29_274 VGND VGND VPWR VPWR sky130_fd_sc_hd__fill_1
XFILLER_29_252 VGND VGND VPWR VPWR sky130_fd_sc_hd__fill_2
XFILLER_35_211 VGND VGND VPWR VPWR sky130_fd_sc_hd__decap_6
XFILLER_26_200 VGND VGND VPWR VPWR sky130_fd_sc_hd__decap_12
XFILLER_4_74 VGND VGND VPWR VPWR sky130_fd_sc_hd__decap_12
XFILLER_4_181 VGND VGND VPWR VPWR sky130_fd_sc_hd__fill_2
XFILLER_17_288 VGND VGND VPWR VPWR sky130_fd_sc_hd__decap_8
XFILLER_32_269 VGND VGND VPWR VPWR sky130_fd_sc_hd__decap_12
XFILLER_23_247 VGND VGND VPWR VPWR sky130_fd_sc_hd__fill_1
X_41_ chanx_left_in[15] chanx_right_out[15] VGND VGND VPWR VPWR sky130_fd_sc_hd__buf_2
XFILLER_14_269 VGND VGND VPWR VPWR sky130_fd_sc_hd__decap_12
XFILLER_9_240 VGND VGND VPWR VPWR sky130_fd_sc_hd__decap_8
XFILLER_9_262 VGND VGND VPWR VPWR sky130_fd_sc_hd__decap_12
XFILLER_11_239 VGND VGND VPWR VPWR sky130_fd_sc_hd__decap_6
XFILLER_34_27 VGND VGND VPWR VPWR sky130_fd_sc_hd__decap_12
X_24_ chanx_right_in[12] chanx_left_out[12] VGND VGND VPWR VPWR sky130_fd_sc_hd__buf_2
XFILLER_6_232 VGND VGND VPWR VPWR sky130_fd_sc_hd__decap_12
XFILLER_3_268 VGND VGND VPWR VPWR sky130_fd_sc_hd__decap_6
XFILLER_10_51 VGND VGND VPWR VPWR sky130_fd_sc_hd__decap_8
XFILLER_10_62 VGND VGND VPWR VPWR sky130_fd_sc_hd__decap_12
XFILLER_29_27 VGND VGND VPWR VPWR sky130_fd_sc_hd__decap_4
XFILLER_28_147 VGND VGND VPWR VPWR sky130_fd_sc_hd__decap_12
XFILLER_19_93 VGND VGND VPWR VPWR sky130_fd_sc_hd__decap_12
XFILLER_19_125 VGND VGND VPWR VPWR sky130_fd_sc_hd__decap_3
XFILLER_32_3 VGND VGND VPWR VPWR sky130_fd_sc_hd__decap_12
XFILLER_27_180 VGND VGND VPWR VPWR sky130_fd_sc_hd__fill_2
X_07_ chanx_left_in[9] chanx_right_out[9] VGND VGND VPWR VPWR sky130_fd_sc_hd__buf_2
XFILLER_25_117 VGND VGND VPWR VPWR sky130_fd_sc_hd__decap_12
XPHY_101 VGND VPWR sky130_fd_sc_hd__tapvpwrvgnd_1
XPHY_112 VGND VPWR sky130_fd_sc_hd__tapvpwrvgnd_1
XPHY_123 VGND VPWR sky130_fd_sc_hd__tapvpwrvgnd_1
XPHY_134 VGND VPWR sky130_fd_sc_hd__tapvpwrvgnd_1
XPHY_145 VGND VPWR sky130_fd_sc_hd__tapvpwrvgnd_1
XPHY_156 VGND VPWR sky130_fd_sc_hd__tapvpwrvgnd_1
XPHY_167 VGND VPWR sky130_fd_sc_hd__tapvpwrvgnd_1
XPHY_178 VGND VPWR sky130_fd_sc_hd__tapvpwrvgnd_1
XPHY_189 VGND VPWR sky130_fd_sc_hd__tapvpwrvgnd_1
XFILLER_16_117 VGND VGND VPWR VPWR sky130_fd_sc_hd__fill_2
XPHY_3 VGND VGND VPWR VPWR sky130_fd_sc_hd__decap_3
XFILLER_30_153 VGND VGND VPWR VPWR sky130_fd_sc_hd__fill_1
XFILLER_30_120 VGND VGND VPWR VPWR sky130_fd_sc_hd__fill_2
XFILLER_26_39 VGND VGND VPWR VPWR sky130_fd_sc_hd__decap_12
XFILLER_8_135 VGND VGND VPWR VPWR sky130_fd_sc_hd__decap_12
XFILLER_12_19 VGND VGND VPWR VPWR sky130_fd_sc_hd__decap_12
XFILLER_5_105 VGND VGND VPWR VPWR sky130_fd_sc_hd__decap_12
XFILLER_5_127 VGND VGND VPWR VPWR sky130_fd_sc_hd__decap_8
XFILLER_7_190 VGND VGND VPWR VPWR sky130_fd_sc_hd__decap_12
XFILLER_26_245 VGND VGND VPWR VPWR sky130_fd_sc_hd__decap_12
XFILLER_26_212 VGND VGND VPWR VPWR sky130_fd_sc_hd__decap_12
XFILLER_17_256 VGND VGND VPWR VPWR sky130_fd_sc_hd__decap_12
XFILLER_27_93 VGND VGND VPWR VPWR sky130_fd_sc_hd__decap_12
XFILLER_4_86 VGND VGND VPWR VPWR sky130_fd_sc_hd__decap_12
XFILLER_23_215 VGND VGND VPWR VPWR sky130_fd_sc_hd__decap_12
X_40_ chanx_left_in[16] chanx_right_out[16] VGND VGND VPWR VPWR sky130_fd_sc_hd__buf_2
XFILLER_1_141 VGND VGND VPWR VPWR sky130_fd_sc_hd__decap_12
XFILLER_22_281 VGND VGND VPWR VPWR sky130_fd_sc_hd__decap_12
XFILLER_9_274 VGND VGND VPWR VPWR sky130_fd_sc_hd__fill_1
XFILLER_9_296 VGND VGND VPWR VPWR sky130_fd_sc_hd__decap_3
XFILLER_1_7 VGND VGND VPWR VPWR sky130_fd_sc_hd__fill_2
XFILLER_34_39 VGND VGND VPWR VPWR sky130_fd_sc_hd__decap_12
X_23_ chanx_right_in[13] chanx_left_out[13] VGND VGND VPWR VPWR sky130_fd_sc_hd__buf_2
XANTENNA_mux_bottom_ipin_0.mux_l2_in_3__A0 _01_/HI VGND VGND VPWR VPWR sky130_fd_sc_hd__diode_2
XFILLER_1_32 VGND VGND VPWR VPWR sky130_fd_sc_hd__decap_12
XFILLER_20_19 VGND VGND VPWR VPWR sky130_fd_sc_hd__decap_12
XFILLER_28_159 VGND VGND VPWR VPWR sky130_fd_sc_hd__decap_12
XFILLER_3_203 VGND VGND VPWR VPWR sky130_fd_sc_hd__decap_8
XFILLER_3_225 VGND VGND VPWR VPWR sky130_fd_sc_hd__fill_2
XFILLER_3_247 VGND VGND VPWR VPWR sky130_fd_sc_hd__fill_1
XFILLER_10_74 VGND VGND VPWR VPWR sky130_fd_sc_hd__decap_12
X_06_ chanx_left_in[10] chanx_right_out[10] VGND VGND VPWR VPWR sky130_fd_sc_hd__buf_2
XFILLER_25_3 VGND VGND VPWR VPWR sky130_fd_sc_hd__decap_12
XPHY_102 VGND VPWR sky130_fd_sc_hd__tapvpwrvgnd_1
XPHY_113 VGND VPWR sky130_fd_sc_hd__tapvpwrvgnd_1
XPHY_124 VGND VPWR sky130_fd_sc_hd__tapvpwrvgnd_1
XPHY_135 VGND VPWR sky130_fd_sc_hd__tapvpwrvgnd_1
XPHY_146 VGND VPWR sky130_fd_sc_hd__tapvpwrvgnd_1
XPHY_157 VGND VPWR sky130_fd_sc_hd__tapvpwrvgnd_1
XPHY_168 VGND VPWR sky130_fd_sc_hd__tapvpwrvgnd_1
XPHY_179 VGND VPWR sky130_fd_sc_hd__tapvpwrvgnd_1
XFILLER_24_184 VGND VGND VPWR VPWR sky130_fd_sc_hd__decap_4
XPHY_4 VGND VGND VPWR VPWR sky130_fd_sc_hd__decap_3
XFILLER_21_154 VGND VGND VPWR VPWR sky130_fd_sc_hd__decap_12
XFILLER_21_198 VGND VGND VPWR VPWR sky130_fd_sc_hd__fill_2
XFILLER_29_276 VGND VGND VPWR VPWR sky130_fd_sc_hd__decap_12
XFILLER_12_110 VGND VGND VPWR VPWR sky130_fd_sc_hd__decap_12
XFILLER_16_62 VGND VGND VPWR VPWR sky130_fd_sc_hd__decap_8
XFILLER_26_257 VGND VGND VPWR VPWR sky130_fd_sc_hd__decap_12
XFILLER_26_224 VGND VGND VPWR VPWR sky130_fd_sc_hd__decap_12
XFILLER_5_117 VGND VGND VPWR VPWR sky130_fd_sc_hd__decap_8
XFILLER_17_202 VGND VGND VPWR VPWR sky130_fd_sc_hd__decap_12
XFILLER_17_268 VGND VGND VPWR VPWR sky130_fd_sc_hd__decap_6
XFILLER_4_98 VGND VGND VPWR VPWR sky130_fd_sc_hd__decap_12
XFILLER_23_227 VGND VGND VPWR VPWR sky130_fd_sc_hd__decap_12
XFILLER_22_293 VGND VGND VPWR VPWR sky130_fd_sc_hd__decap_6
XFILLER_9_231 VGND VGND VPWR VPWR sky130_fd_sc_hd__fill_1
XFILLER_18_19 VGND VGND VPWR VPWR sky130_fd_sc_hd__decap_12
X_22_ chanx_right_in[14] chanx_left_out[14] VGND VGND VPWR VPWR sky130_fd_sc_hd__buf_2
XANTENNA_mux_bottom_ipin_0.mux_l2_in_3__A1 chanx_right_in[16] VGND VGND VPWR VPWR
+ sky130_fd_sc_hd__diode_2
XFILLER_1_11 VGND VGND VPWR VPWR sky130_fd_sc_hd__decap_12
XFILLER_1_44 VGND VGND VPWR VPWR sky130_fd_sc_hd__decap_12
XFILLER_6_245 VGND VGND VPWR VPWR sky130_fd_sc_hd__decap_12
XFILLER_10_252 VGND VGND VPWR VPWR sky130_fd_sc_hd__decap_12