* NGSPICE file created from cbx_1__0_.ext - technology: EFS8A

* Black-box entry subcircuit for scs8hd_fill_2 abstract view
.subckt scs8hd_fill_2 vpwr vgnd
.ends

* Black-box entry subcircuit for scs8hd_decap_6 abstract view
.subckt scs8hd_decap_6 vgnd vpwr
.ends

* Black-box entry subcircuit for scs8hd_decap_8 abstract view
.subckt scs8hd_decap_8 vgnd vpwr
.ends

* Black-box entry subcircuit for scs8hd_diode_2 abstract view
.subckt scs8hd_diode_2 DIODE vgnd vpwr
.ends

* Black-box entry subcircuit for scs8hd_decap_4 abstract view
.subckt scs8hd_decap_4 vgnd vpwr
.ends

* Black-box entry subcircuit for scs8hd_ebufn_2 abstract view
.subckt scs8hd_ebufn_2 A TEB Z vgnd vpwr
.ends

* Black-box entry subcircuit for scs8hd_lpflow_inputisolatch_1 abstract view
.subckt scs8hd_lpflow_inputisolatch_1 D Q SLEEPB vgnd vpwr
.ends

* Black-box entry subcircuit for scs8hd_decap_12 abstract view
.subckt scs8hd_decap_12 vgnd vpwr
.ends

* Black-box entry subcircuit for scs8hd_decap_3 abstract view
.subckt scs8hd_decap_3 vgnd vpwr
.ends

* Black-box entry subcircuit for scs8hd_or3_4 abstract view
.subckt scs8hd_or3_4 A B C X vgnd vpwr
.ends

* Black-box entry subcircuit for scs8hd_conb_1 abstract view
.subckt scs8hd_conb_1 HI LO vgnd vpwr
.ends

* Black-box entry subcircuit for scs8hd_inv_8 abstract view
.subckt scs8hd_inv_8 A Y vgnd vpwr
.ends

* Black-box entry subcircuit for scs8hd_nor2_4 abstract view
.subckt scs8hd_nor2_4 A B Y vgnd vpwr
.ends

* Black-box entry subcircuit for scs8hd_fill_1 abstract view
.subckt scs8hd_fill_1 vgnd vpwr
.ends

* Black-box entry subcircuit for scs8hd_inv_1 abstract view
.subckt scs8hd_inv_1 A Y vgnd vpwr
.ends

* Black-box entry subcircuit for scs8hd_tapvpwrvgnd_1 abstract view
.subckt scs8hd_tapvpwrvgnd_1 vgnd vpwr
.ends

* Black-box entry subcircuit for scs8hd_or4_4 abstract view
.subckt scs8hd_or4_4 A B C D X vgnd vpwr
.ends

* Black-box entry subcircuit for scs8hd_buf_2 abstract view
.subckt scs8hd_buf_2 A X vgnd vpwr
.ends

* Black-box entry subcircuit for scs8hd_nor4_4 abstract view
.subckt scs8hd_nor4_4 A B C D Y vgnd vpwr
.ends

* Black-box entry subcircuit for scs8hd_or2_4 abstract view
.subckt scs8hd_or2_4 A B X vgnd vpwr
.ends

* Black-box entry subcircuit for scs8hd_nand3_4 abstract view
.subckt scs8hd_nand3_4 A B C Y vgnd vpwr
.ends

.subckt cbx_1__0_ address[0] address[1] address[2] address[3] address[4] address[5]
+ address[6] bottom_grid_pin_0_ bottom_grid_pin_10_ bottom_grid_pin_12_ bottom_grid_pin_14_
+ bottom_grid_pin_2_ bottom_grid_pin_4_ bottom_grid_pin_6_ bottom_grid_pin_8_ chanx_left_in[0]
+ chanx_left_in[1] chanx_left_in[2] chanx_left_in[3] chanx_left_in[4] chanx_left_in[5]
+ chanx_left_in[6] chanx_left_in[7] chanx_left_in[8] chanx_left_out[0] chanx_left_out[1]
+ chanx_left_out[2] chanx_left_out[3] chanx_left_out[4] chanx_left_out[5] chanx_left_out[6]
+ chanx_left_out[7] chanx_left_out[8] chanx_right_in[0] chanx_right_in[1] chanx_right_in[2]
+ chanx_right_in[3] chanx_right_in[4] chanx_right_in[5] chanx_right_in[6] chanx_right_in[7]
+ chanx_right_in[8] chanx_right_out[0] chanx_right_out[1] chanx_right_out[2] chanx_right_out[3]
+ chanx_right_out[4] chanx_right_out[5] chanx_right_out[6] chanx_right_out[7] chanx_right_out[8]
+ data_in enable top_grid_pin_14_ top_grid_pin_2_ top_grid_pin_6_ vpwr vgnd
XFILLER_22_133 vpwr vgnd scs8hd_fill_2
XFILLER_22_144 vgnd vpwr scs8hd_decap_6
XFILLER_26_52 vgnd vpwr scs8hd_decap_8
XANTENNA_mux_top_ipin_3.mux_l1_in_1_.TGATE_2_.scs8hd_ebufn_2_A mux_top_ipin_3.INVTX1_5_.scs8hd_inv_1/Y
+ vgnd vpwr scs8hd_diode_2
XFILLER_9_148 vgnd vpwr scs8hd_decap_4
Xmux_top_ipin_7.mux_l1_in_0_.TGATE_0_.scs8hd_ebufn_2 mux_top_ipin_7.INVTX1_0_.scs8hd_inv_1/Y
+ mem_top_ipin_7.LATCH_0_.latch/Q mux_top_ipin_7.mux_l2_in_0_.TGATE_0_.scs8hd_ebufn_2/A
+ vgnd vpwr scs8hd_ebufn_2
XANTENNA__113__B _111_/B vgnd vpwr scs8hd_diode_2
Xmem_bottom_ipin_2.LATCH_1_.latch data_in mem_bottom_ipin_2.LATCH_1_.latch/Q _120_/Y
+ vgnd vpwr scs8hd_lpflow_inputisolatch_1
XFILLER_6_129 vgnd vpwr scs8hd_decap_4
XFILLER_10_125 vpwr vgnd scs8hd_fill_2
XFILLER_10_169 vgnd vpwr scs8hd_decap_4
XFILLER_12_21 vpwr vgnd scs8hd_fill_2
XFILLER_12_43 vgnd vpwr scs8hd_decap_12
XANTENNA_mem_top_ipin_3.LATCH_3_.latch_SLEEPB _072_/Y vgnd vpwr scs8hd_diode_2
XANTENNA__108__B address[3] vgnd vpwr scs8hd_diode_2
XFILLER_5_173 vpwr vgnd scs8hd_fill_2
XFILLER_5_151 vgnd vpwr scs8hd_decap_3
Xmux_top_ipin_4.mux_l2_in_0_.TGATE_0_.scs8hd_ebufn_2 mux_top_ipin_4.mux_l1_in_0_.TGATE_2_.scs8hd_ebufn_2/Z
+ mem_top_ipin_4.LATCH_3_.latch/Q mux_top_ipin_4.tap_buf4_0_.scs8hd_inv_1/A vgnd vpwr
+ scs8hd_ebufn_2
XANTENNA__124__A _052_/X vgnd vpwr scs8hd_diode_2
XANTENNA_mux_bottom_ipin_1.mux_l1_in_0_.TGATE_1_.scs8hd_ebufn_2_TEB _041_/Y vgnd vpwr
+ scs8hd_diode_2
XANTENNA_mux_top_ipin_6.tap_buf4_0_.scs8hd_inv_1_A mux_top_ipin_6.tap_buf4_0_.scs8hd_inv_1/A
+ vgnd vpwr scs8hd_diode_2
X_062_ address[4] _122_/B _076_/C _068_/B vgnd vpwr scs8hd_or3_4
X_131_ _131_/HI _131_/LO vgnd vpwr scs8hd_conb_1
XFILLER_23_53 vpwr vgnd scs8hd_fill_2
XFILLER_2_143 vgnd vpwr scs8hd_decap_4
XFILLER_2_121 vpwr vgnd scs8hd_fill_2
XFILLER_2_110 vpwr vgnd scs8hd_fill_2
XFILLER_0_35 vpwr vgnd scs8hd_fill_2
XANTENNA_mem_top_ipin_0.LATCH_3_.latch_D data_in vgnd vpwr scs8hd_diode_2
XFILLER_9_77 vpwr vgnd scs8hd_fill_2
XANTENNA__119__A _056_/X vgnd vpwr scs8hd_diode_2
XANTENNA_mem_top_ipin_1.LATCH_1_.latch_D data_in vgnd vpwr scs8hd_diode_2
XFILLER_18_20 vpwr vgnd scs8hd_fill_2
XFILLER_18_42 vpwr vgnd scs8hd_fill_2
XFILLER_18_86 vgnd vpwr scs8hd_decap_6
X_045_ address[6] _049_/B vgnd vpwr scs8hd_inv_8
Xmem_top_ipin_5.LATCH_0_.latch data_in mem_top_ipin_5.LATCH_0_.latch/Q _090_/Y vgnd
+ vpwr scs8hd_lpflow_inputisolatch_1
XANTENNA__105__C address[5] vgnd vpwr scs8hd_diode_2
X_114_ _121_/A _111_/B _114_/Y vgnd vpwr scs8hd_nor2_4
XANTENNA__121__B _121_/B vgnd vpwr scs8hd_diode_2
XFILLER_22_7 vgnd vpwr scs8hd_decap_3
XANTENNA_mux_top_ipin_4.mux_l2_in_0_.TGATE_2_.scs8hd_ebufn_2_A _136_/HI vgnd vpwr
+ scs8hd_diode_2
XFILLER_29_117 vgnd vpwr scs8hd_decap_4
XFILLER_29_106 vgnd vpwr scs8hd_fill_1
XANTENNA_mux_top_ipin_2.INVTX1_1_.scs8hd_inv_1_A chanx_right_in[0] vgnd vpwr scs8hd_diode_2
Xmux_top_ipin_0.mux_l1_in_1_.TGATE_0_.scs8hd_ebufn_2 mux_top_ipin_0.INVTX1_3_.scs8hd_inv_1/Y
+ mem_top_ipin_0.LATCH_0_.latch/Q mux_top_ipin_0.mux_l1_in_1_.TGATE_2_.scs8hd_ebufn_2/Z
+ vgnd vpwr scs8hd_ebufn_2
XFILLER_20_10 vpwr vgnd scs8hd_fill_2
XFILLER_20_54 vpwr vgnd scs8hd_fill_2
XFILLER_29_30 vpwr vgnd scs8hd_fill_2
XFILLER_28_150 vgnd vpwr scs8hd_decap_3
Xmem_top_ipin_7.LATCH_3_.latch data_in mem_top_ipin_7.LATCH_3_.latch/Q _101_/Y vgnd
+ vpwr scs8hd_lpflow_inputisolatch_1
XANTENNA__116__B _121_/B vgnd vpwr scs8hd_diode_2
XANTENNA_mux_top_ipin_6.INVTX1_2_.scs8hd_inv_1_A chanx_left_in[4] vgnd vpwr scs8hd_diode_2
XANTENNA_mux_top_ipin_0.mux_l1_in_0_.TGATE_2_.scs8hd_ebufn_2_A mux_top_ipin_0.INVTX1_2_.scs8hd_inv_1/Y
+ vgnd vpwr scs8hd_diode_2
Xmux_bottom_ipin_0.mux_l2_in_0_.TGATE_2_.scs8hd_ebufn_2 _129_/HI mem_bottom_ipin_0.LATCH_5_.latch/Q
+ mux_bottom_ipin_0.tap_buf4_0_.scs8hd_inv_1/A vgnd vpwr scs8hd_ebufn_2
XANTENNA_mem_top_ipin_1.LATCH_4_.latch_SLEEPB _053_/Y vgnd vpwr scs8hd_diode_2
XANTENNA__042__A address[1] vgnd vpwr scs8hd_diode_2
XFILLER_1_208 vgnd vpwr scs8hd_decap_4
Xmux_bottom_ipin_0.INVTX1_3_.scs8hd_inv_1 chanx_right_in[4] mux_bottom_ipin_0.INVTX1_3_.scs8hd_inv_1/Y
+ vgnd vpwr scs8hd_inv_1
XFILLER_15_32 vpwr vgnd scs8hd_fill_2
XANTENNA_mem_top_ipin_4.LATCH_5_.latch_D data_in vgnd vpwr scs8hd_diode_2
XFILLER_15_54 vpwr vgnd scs8hd_fill_2
XFILLER_15_76 vpwr vgnd scs8hd_fill_2
XFILLER_31_97 vpwr vgnd scs8hd_fill_2
XANTENNA_mem_top_ipin_5.LATCH_3_.latch_D data_in vgnd vpwr scs8hd_diode_2
XFILLER_31_156 vgnd vpwr scs8hd_decap_12
XFILLER_31_112 vgnd vpwr scs8hd_decap_12
XFILLER_31_101 vgnd vpwr scs8hd_decap_4
XANTENNA__127__A _058_/X vgnd vpwr scs8hd_diode_2
XANTENNA_mem_top_ipin_6.LATCH_1_.latch_D data_in vgnd vpwr scs8hd_diode_2
XFILLER_26_75 vpwr vgnd scs8hd_fill_2
XFILLER_26_64 vpwr vgnd scs8hd_fill_2
XFILLER_13_123 vgnd vpwr scs8hd_decap_4
XFILLER_13_167 vpwr vgnd scs8hd_fill_2
Xmux_top_ipin_4.mux_l1_in_1_.TGATE_1_.scs8hd_ebufn_2 mux_top_ipin_4.INVTX1_4_.scs8hd_inv_1/Y
+ mem_top_ipin_4.LATCH_1_.latch/Q mux_top_ipin_4.mux_l1_in_1_.TGATE_2_.scs8hd_ebufn_2/Z
+ vgnd vpwr scs8hd_ebufn_2
XFILLER_3_57 vpwr vgnd scs8hd_fill_2
XANTENNA_mux_top_ipin_0.mux_l2_in_0_.TGATE_0_.scs8hd_ebufn_2_A mux_top_ipin_0.mux_l1_in_0_.TGATE_1_.scs8hd_ebufn_2/Z
+ vgnd vpwr scs8hd_diode_2
Xmux_top_ipin_5.INVTX1_0_.scs8hd_inv_1 chanx_left_in[3] mux_top_ipin_5.INVTX1_0_.scs8hd_inv_1/Y
+ vgnd vpwr scs8hd_inv_1
XANTENNA_mux_bottom_ipin_1.mux_l1_in_0_.TGATE_1_.scs8hd_ebufn_2_A mux_bottom_ipin_1.INVTX1_1_.scs8hd_inv_1/Y
+ vgnd vpwr scs8hd_diode_2
XFILLER_8_193 vgnd vpwr scs8hd_decap_8
XANTENNA_mux_top_ipin_7.mux_l1_in_0_.TGATE_1_.scs8hd_ebufn_2_A mux_top_ipin_7.INVTX1_1_.scs8hd_inv_1/Y
+ vgnd vpwr scs8hd_diode_2
XANTENNA__108__C _122_/C vgnd vpwr scs8hd_diode_2
XANTENNA__124__B _122_/X vgnd vpwr scs8hd_diode_2
Xmux_top_ipin_6.INVTX1_4_.scs8hd_inv_1 chanx_left_in[8] mux_top_ipin_6.INVTX1_4_.scs8hd_inv_1/Y
+ vgnd vpwr scs8hd_inv_1
XANTENNA__140__A chanx_right_in[8] vgnd vpwr scs8hd_diode_2
Xmux_top_ipin_0.tap_buf4_0_.scs8hd_inv_1 mux_top_ipin_0.tap_buf4_0_.scs8hd_inv_1/A
+ bottom_grid_pin_0_ vgnd vpwr scs8hd_inv_1
XANTENNA__050__A address[4] vgnd vpwr scs8hd_diode_2
XANTENNA_mux_top_ipin_4.mux_l2_in_0_.TGATE_2_.scs8hd_ebufn_2_TEB mem_top_ipin_4.LATCH_5_.latch/Q
+ vgnd vpwr scs8hd_diode_2
X_130_ _130_/HI _130_/LO vgnd vpwr scs8hd_conb_1
XFILLER_23_10 vpwr vgnd scs8hd_fill_2
X_061_ _051_/B _121_/A _061_/Y vgnd vpwr scs8hd_nor2_4
XFILLER_23_87 vpwr vgnd scs8hd_fill_2
XFILLER_0_58 vpwr vgnd scs8hd_fill_2
XFILLER_9_12 vpwr vgnd scs8hd_fill_2
XANTENNA__119__B _121_/B vgnd vpwr scs8hd_diode_2
XFILLER_9_56 vgnd vpwr scs8hd_decap_3
XANTENNA__045__A address[6] vgnd vpwr scs8hd_diode_2
XFILLER_18_32 vgnd vpwr scs8hd_fill_1
XFILLER_18_65 vpwr vgnd scs8hd_fill_2
X_113_ _058_/X _111_/B _113_/Y vgnd vpwr scs8hd_nor2_4
X_044_ enable _098_/C vgnd vpwr scs8hd_inv_8
Xmux_top_ipin_6.mux_l1_in_0_.TGATE_0_.scs8hd_ebufn_2 mux_top_ipin_6.INVTX1_0_.scs8hd_inv_1/Y
+ mem_top_ipin_6.LATCH_0_.latch/Q mux_top_ipin_6.mux_l1_in_0_.TGATE_0_.scs8hd_ebufn_2/Z
+ vgnd vpwr scs8hd_ebufn_2
XFILLER_19_140 vgnd vpwr scs8hd_decap_3
XFILLER_19_173 vpwr vgnd scs8hd_fill_2
XFILLER_25_198 vpwr vgnd scs8hd_fill_2
XFILLER_25_187 vpwr vgnd scs8hd_fill_2
XANTENNA_mem_bottom_ipin_0.LATCH_5_.latch_D data_in vgnd vpwr scs8hd_diode_2
Xmux_top_ipin_3.mux_l2_in_0_.TGATE_0_.scs8hd_ebufn_2 mux_top_ipin_3.mux_l1_in_0_.TGATE_2_.scs8hd_ebufn_2/Z
+ mem_top_ipin_3.LATCH_3_.latch/Q mux_top_ipin_3.tap_buf4_0_.scs8hd_inv_1/A vgnd vpwr
+ scs8hd_ebufn_2
XFILLER_15_99 vpwr vgnd scs8hd_fill_2
XFILLER_31_168 vgnd vpwr scs8hd_decap_12
XPHY_160 vgnd vpwr scs8hd_tapvpwrvgnd_1
XANTENNA__127__B _122_/X vgnd vpwr scs8hd_diode_2
XFILLER_16_154 vpwr vgnd scs8hd_fill_2
XANTENNA__143__A chanx_right_in[5] vgnd vpwr scs8hd_diode_2
XANTENNA_mem_bottom_ipin_2.LATCH_1_.latch_D data_in vgnd vpwr scs8hd_diode_2
XFILLER_30_190 vgnd vpwr scs8hd_decap_12
XANTENNA_mux_top_ipin_6.mux_l2_in_0_.TGATE_1_.scs8hd_ebufn_2_TEB mem_top_ipin_6.LATCH_4_.latch/Q
+ vgnd vpwr scs8hd_diode_2
XANTENNA__053__A _051_/B vgnd vpwr scs8hd_diode_2
XFILLER_26_32 vgnd vpwr scs8hd_decap_4
Xmem_top_ipin_0.LATCH_4_.latch data_in mem_top_ipin_0.LATCH_4_.latch/Q _124_/Y vgnd
+ vpwr scs8hd_lpflow_inputisolatch_1
XFILLER_26_87 vgnd vpwr scs8hd_decap_3
XFILLER_13_179 vpwr vgnd scs8hd_fill_2
XANTENNA_mux_top_ipin_4.mux_l1_in_1_.TGATE_2_.scs8hd_ebufn_2_A mux_top_ipin_4.INVTX1_5_.scs8hd_inv_1/Y
+ vgnd vpwr scs8hd_diode_2
XFILLER_3_25 vpwr vgnd scs8hd_fill_2
XFILLER_8_150 vgnd vpwr scs8hd_fill_1
XFILLER_12_190 vpwr vgnd scs8hd_fill_2
XANTENNA_mem_top_ipin_6.LATCH_4_.latch_SLEEPB _093_/Y vgnd vpwr scs8hd_diode_2
XANTENNA__048__A address[1] vgnd vpwr scs8hd_diode_2
XFILLER_10_105 vpwr vgnd scs8hd_fill_2
Xmux_bottom_ipin_2.mux_l1_in_0_.TGATE_2_.scs8hd_ebufn_2 mux_bottom_ipin_2.INVTX1_2_.scs8hd_inv_1/Y
+ mem_bottom_ipin_2.LATCH_2_.latch/Q mux_bottom_ipin_2.mux_l2_in_0_.TGATE_0_.scs8hd_ebufn_2/A
+ vgnd vpwr scs8hd_ebufn_2
Xmux_top_ipin_7.mux_l2_in_0_.TGATE_1_.scs8hd_ebufn_2 mux_top_ipin_7.mux_l2_in_0_.TGATE_1_.scs8hd_ebufn_2/A
+ mem_top_ipin_7.LATCH_4_.latch/Q mux_top_ipin_7.tap_buf4_0_.scs8hd_inv_1/A vgnd vpwr
+ scs8hd_ebufn_2
XANTENNA_mux_top_ipin_1.mux_l2_in_0_.TGATE_1_.scs8hd_ebufn_2_TEB mem_top_ipin_1.LATCH_4_.latch/Q
+ vgnd vpwr scs8hd_diode_2
XFILLER_5_197 vpwr vgnd scs8hd_fill_2
Xmux_top_ipin_3.INVTX1_0_.scs8hd_inv_1 chanx_left_in[1] mux_top_ipin_3.INVTX1_0_.scs8hd_inv_1/Y
+ vgnd vpwr scs8hd_inv_1
XANTENNA__050__B address[3] vgnd vpwr scs8hd_diode_2
XFILLER_15_208 vgnd vpwr scs8hd_decap_4
XFILLER_3_3 vgnd vpwr scs8hd_decap_3
X_060_ address[1] address[2] address[0] _121_/A vgnd vpwr scs8hd_or3_4
XFILLER_9_35 vpwr vgnd scs8hd_fill_2
XANTENNA__151__A chanx_left_in[6] vgnd vpwr scs8hd_diode_2
XANTENNA__061__A _051_/B vgnd vpwr scs8hd_diode_2
Xmux_top_ipin_4.INVTX1_4_.scs8hd_inv_1 chanx_left_in[7] mux_top_ipin_4.INVTX1_4_.scs8hd_inv_1/Y
+ vgnd vpwr scs8hd_inv_1
Xmem_bottom_ipin_0.LATCH_4_.latch data_in mem_bottom_ipin_0.LATCH_4_.latch/Q _110_/Y
+ vgnd vpwr scs8hd_lpflow_inputisolatch_1
XANTENNA_mux_top_ipin_0.mux_l1_in_1_.TGATE_0_.scs8hd_ebufn_2_A mux_top_ipin_0.INVTX1_3_.scs8hd_inv_1/Y
+ vgnd vpwr scs8hd_diode_2
X_043_ address[2] _052_/B vgnd vpwr scs8hd_inv_8
XFILLER_7_204 vpwr vgnd scs8hd_fill_2
XFILLER_11_200 vgnd vpwr scs8hd_fill_1
X_112_ _056_/X _111_/B _112_/Y vgnd vpwr scs8hd_nor2_4
XANTENNA__146__A chanx_right_in[2] vgnd vpwr scs8hd_diode_2
XANTENNA_mux_top_ipin_5.mux_l2_in_0_.TGATE_2_.scs8hd_ebufn_2_A _137_/HI vgnd vpwr
+ scs8hd_diode_2
XANTENNA__056__A _054_/A vgnd vpwr scs8hd_diode_2
XANTENNA_mem_top_ipin_4.LATCH_5_.latch_SLEEPB _077_/Y vgnd vpwr scs8hd_diode_2
Xmux_top_ipin_3.mux_l1_in_1_.TGATE_1_.scs8hd_ebufn_2 mux_top_ipin_3.INVTX1_4_.scs8hd_inv_1/Y
+ mem_top_ipin_3.LATCH_1_.latch/Q mux_top_ipin_3.mux_l1_in_1_.TGATE_2_.scs8hd_ebufn_2/Z
+ vgnd vpwr scs8hd_ebufn_2
XFILLER_20_23 vgnd vpwr scs8hd_decap_4
XFILLER_29_87 vgnd vpwr scs8hd_decap_6
XFILLER_29_43 vpwr vgnd scs8hd_fill_2
XFILLER_6_14 vpwr vgnd scs8hd_fill_2
XANTENNA_mux_top_ipin_1.INVTX1_5_.scs8hd_inv_1_A chanx_right_in[8] vgnd vpwr scs8hd_diode_2
XFILLER_20_6 vpwr vgnd scs8hd_fill_2
XANTENNA_mux_top_ipin_1.mux_l1_in_0_.TGATE_2_.scs8hd_ebufn_2_A mux_top_ipin_1.INVTX1_2_.scs8hd_inv_1/Y
+ vgnd vpwr scs8hd_diode_2
Xmem_top_ipin_1.LATCH_0_.latch data_in mem_top_ipin_1.LATCH_0_.latch/Q _061_/Y vgnd
+ vpwr scs8hd_lpflow_inputisolatch_1
XFILLER_19_152 vpwr vgnd scs8hd_fill_2
XFILLER_25_111 vgnd vpwr scs8hd_decap_4
XANTENNA_mux_top_ipin_3.mux_l2_in_0_.TGATE_0_.scs8hd_ebufn_2_TEB mem_top_ipin_3.LATCH_3_.latch/Q
+ vgnd vpwr scs8hd_diode_2
XFILLER_16_122 vpwr vgnd scs8hd_fill_2
XPHY_161 vgnd vpwr scs8hd_tapvpwrvgnd_1
XPHY_150 vgnd vpwr scs8hd_tapvpwrvgnd_1
Xmem_top_ipin_3.LATCH_3_.latch data_in mem_top_ipin_3.LATCH_3_.latch/Q _072_/Y vgnd
+ vpwr scs8hd_lpflow_inputisolatch_1
XFILLER_22_103 vgnd vpwr scs8hd_decap_4
XANTENNA__053__B _052_/X vgnd vpwr scs8hd_diode_2
XFILLER_7_90 vgnd vpwr scs8hd_decap_3
XFILLER_9_118 vpwr vgnd scs8hd_fill_2
XFILLER_13_114 vpwr vgnd scs8hd_fill_2
XFILLER_21_191 vpwr vgnd scs8hd_fill_2
Xmux_top_ipin_7.mux_l1_in_1_.TGATE_2_.scs8hd_ebufn_2 mux_top_ipin_7.INVTX1_5_.scs8hd_inv_1/Y
+ mem_top_ipin_7.LATCH_2_.latch/Q mux_top_ipin_7.mux_l2_in_0_.TGATE_1_.scs8hd_ebufn_2/A
+ vgnd vpwr scs8hd_ebufn_2
XANTENNA_mux_top_ipin_1.mux_l2_in_0_.TGATE_0_.scs8hd_ebufn_2_A mux_top_ipin_1.mux_l1_in_0_.TGATE_0_.scs8hd_ebufn_2/Z
+ vgnd vpwr scs8hd_diode_2
XANTENNA__154__A chanx_left_in[3] vgnd vpwr scs8hd_diode_2
XFILLER_8_162 vpwr vgnd scs8hd_fill_2
XANTENNA_mux_bottom_ipin_2.mux_l1_in_0_.TGATE_1_.scs8hd_ebufn_2_A mux_bottom_ipin_2.INVTX1_1_.scs8hd_inv_1/Y
+ vgnd vpwr scs8hd_diode_2
XANTENNA__048__B _052_/B vgnd vpwr scs8hd_diode_2
XANTENNA__064__A _052_/X vgnd vpwr scs8hd_diode_2
XFILLER_12_13 vpwr vgnd scs8hd_fill_2
XFILLER_12_68 vgnd vpwr scs8hd_decap_4
XFILLER_5_132 vpwr vgnd scs8hd_fill_2
Xmem_bottom_ipin_1.LATCH_0_.latch data_in _041_/A _107_/Y vgnd vpwr scs8hd_lpflow_inputisolatch_1
XANTENNA__149__A chanx_left_in[8] vgnd vpwr scs8hd_diode_2
Xmux_top_ipin_5.mux_l1_in_0_.TGATE_0_.scs8hd_ebufn_2 mux_top_ipin_5.INVTX1_0_.scs8hd_inv_1/Y
+ mem_top_ipin_5.LATCH_0_.latch/Q mux_top_ipin_5.mux_l1_in_0_.TGATE_0_.scs8hd_ebufn_2/Z
+ vgnd vpwr scs8hd_ebufn_2
XANTENNA__050__C _076_/C vgnd vpwr scs8hd_diode_2
XANTENNA__059__A _051_/B vgnd vpwr scs8hd_diode_2
XFILLER_23_23 vpwr vgnd scs8hd_fill_2
XFILLER_2_168 vgnd vpwr scs8hd_decap_3
XFILLER_2_102 vpwr vgnd scs8hd_fill_2
Xmux_top_ipin_2.mux_l2_in_0_.TGATE_0_.scs8hd_ebufn_2 mux_top_ipin_2.mux_l1_in_0_.TGATE_0_.scs8hd_ebufn_2/Z
+ mem_top_ipin_2.LATCH_3_.latch/Q mux_top_ipin_2.tap_buf4_0_.scs8hd_inv_1/A vgnd vpwr
+ scs8hd_ebufn_2
XANTENNA__061__B _121_/A vgnd vpwr scs8hd_diode_2
Xmux_bottom_ipin_2.INVTX1_0_.scs8hd_inv_1 chanx_left_in[1] mux_bottom_ipin_2.INVTX1_0_.scs8hd_inv_1/Y
+ vgnd vpwr scs8hd_inv_1
XFILLER_18_78 vpwr vgnd scs8hd_fill_2
X_042_ address[1] _054_/A vgnd vpwr scs8hd_inv_8
Xmux_top_ipin_1.INVTX1_0_.scs8hd_inv_1 chanx_left_in[3] mux_top_ipin_1.INVTX1_0_.scs8hd_inv_1/Y
+ vgnd vpwr scs8hd_inv_1
X_111_ _054_/X _111_/B _111_/Y vgnd vpwr scs8hd_nor2_4
XFILLER_1_81 vgnd vpwr scs8hd_fill_1
XANTENNA_mux_top_ipin_3.INVTX1_3_.scs8hd_inv_1_A chanx_right_in[5] vgnd vpwr scs8hd_diode_2
XANTENNA__056__B address[2] vgnd vpwr scs8hd_diode_2
XANTENNA__072__A _054_/X vgnd vpwr scs8hd_diode_2
XFILLER_20_35 vgnd vpwr scs8hd_decap_4
XFILLER_29_99 vgnd vpwr scs8hd_decap_4
XFILLER_29_66 vpwr vgnd scs8hd_fill_2
XFILLER_29_55 vgnd vpwr scs8hd_decap_4
XFILLER_28_142 vgnd vpwr scs8hd_decap_8
XFILLER_28_131 vgnd vpwr scs8hd_decap_8
Xmux_top_ipin_2.INVTX1_4_.scs8hd_inv_1 chanx_left_in[5] mux_top_ipin_2.INVTX1_4_.scs8hd_inv_1/Y
+ vgnd vpwr scs8hd_inv_1
XANTENNA_mux_top_ipin_7.INVTX1_4_.scs8hd_inv_1_A chanx_left_in[5] vgnd vpwr scs8hd_diode_2
XANTENNA__157__A chanx_left_in[0] vgnd vpwr scs8hd_diode_2
XFILLER_19_197 vpwr vgnd scs8hd_fill_2
XFILLER_25_123 vpwr vgnd scs8hd_fill_2
XFILLER_25_178 vpwr vgnd scs8hd_fill_2
XFILLER_25_167 vpwr vgnd scs8hd_fill_2
XFILLER_25_156 vgnd vpwr scs8hd_decap_4
XFILLER_25_134 vpwr vgnd scs8hd_fill_2
XANTENNA__067__A _058_/X vgnd vpwr scs8hd_diode_2
Xmem_top_ipin_6.LATCH_2_.latch data_in mem_top_ipin_6.LATCH_2_.latch/Q _095_/Y vgnd
+ vpwr scs8hd_lpflow_inputisolatch_1
XFILLER_15_13 vpwr vgnd scs8hd_fill_2
XFILLER_31_56 vgnd vpwr scs8hd_decap_4
XFILLER_31_45 vgnd vpwr scs8hd_decap_4
Xmux_top_ipin_6.mux_l2_in_0_.TGATE_1_.scs8hd_ebufn_2 mux_top_ipin_6.mux_l1_in_1_.TGATE_0_.scs8hd_ebufn_2/Z
+ mem_top_ipin_6.LATCH_4_.latch/Q mux_top_ipin_6.tap_buf4_0_.scs8hd_inv_1/A vgnd vpwr
+ scs8hd_ebufn_2
XFILLER_0_200 vgnd vpwr scs8hd_decap_12
XFILLER_16_189 vpwr vgnd scs8hd_fill_2
XPHY_162 vgnd vpwr scs8hd_tapvpwrvgnd_1
XPHY_151 vgnd vpwr scs8hd_tapvpwrvgnd_1
XPHY_140 vgnd vpwr scs8hd_tapvpwrvgnd_1
XFILLER_11_3 vpwr vgnd scs8hd_fill_2
XANTENNA_mux_bottom_ipin_1.mux_l2_in_0_.TGATE_1_.scs8hd_ebufn_2_TEB _040_/Y vgnd vpwr
+ scs8hd_diode_2
XFILLER_22_137 vpwr vgnd scs8hd_fill_2
XFILLER_26_23 vpwr vgnd scs8hd_fill_2
XFILLER_13_148 vpwr vgnd scs8hd_fill_2
XFILLER_3_38 vpwr vgnd scs8hd_fill_2
XANTENNA_mux_top_ipin_5.mux_l1_in_1_.TGATE_2_.scs8hd_ebufn_2_A mux_top_ipin_5.INVTX1_5_.scs8hd_inv_1/Y
+ vgnd vpwr scs8hd_diode_2
XANTENNA_mem_top_ipin_1.LATCH_4_.latch_D data_in vgnd vpwr scs8hd_diode_2
XANTENNA_mem_top_ipin_3.LATCH_0_.latch_SLEEPB _075_/Y vgnd vpwr scs8hd_diode_2
XANTENNA__048__C _054_/C vgnd vpwr scs8hd_diode_2
XANTENNA__064__B _068_/B vgnd vpwr scs8hd_diode_2
XANTENNA_mem_top_ipin_2.LATCH_2_.latch_D data_in vgnd vpwr scs8hd_diode_2
XFILLER_10_118 vgnd vpwr scs8hd_decap_4
XFILLER_10_129 vpwr vgnd scs8hd_fill_2
XFILLER_12_25 vgnd vpwr scs8hd_decap_4
XANTENNA__080__A _056_/X vgnd vpwr scs8hd_diode_2
XANTENNA_mem_top_ipin_3.LATCH_0_.latch_D data_in vgnd vpwr scs8hd_diode_2
XANTENNA_mem_bottom_ipin_2.LATCH_4_.latch_SLEEPB _117_/Y vgnd vpwr scs8hd_diode_2
XFILLER_5_177 vgnd vpwr scs8hd_decap_4
Xmux_top_ipin_2.mux_l1_in_1_.TGATE_1_.scs8hd_ebufn_2 mux_top_ipin_2.INVTX1_4_.scs8hd_inv_1/Y
+ mem_top_ipin_2.LATCH_1_.latch/Q mux_top_ipin_2.mux_l1_in_1_.TGATE_2_.scs8hd_ebufn_2/Z
+ vgnd vpwr scs8hd_ebufn_2
XANTENNA__059__B _058_/X vgnd vpwr scs8hd_diode_2
XANTENNA__075__A _121_/A vgnd vpwr scs8hd_diode_2
XFILLER_23_57 vpwr vgnd scs8hd_fill_2
XFILLER_23_68 vpwr vgnd scs8hd_fill_2
XFILLER_2_125 vgnd vpwr scs8hd_decap_4
XFILLER_0_39 vpwr vgnd scs8hd_fill_2
XFILLER_9_48 vpwr vgnd scs8hd_fill_2
XANTENNA_mux_top_ipin_1.INVTX1_0_.scs8hd_inv_1_A chanx_left_in[3] vgnd vpwr scs8hd_diode_2
XANTENNA_mux_top_ipin_1.mux_l1_in_1_.TGATE_0_.scs8hd_ebufn_2_A mux_top_ipin_1.INVTX1_3_.scs8hd_inv_1/Y
+ vgnd vpwr scs8hd_diode_2
XFILLER_18_24 vpwr vgnd scs8hd_fill_2
XFILLER_18_46 vpwr vgnd scs8hd_fill_2
X_110_ _052_/X _111_/B _110_/Y vgnd vpwr scs8hd_nor2_4
X_041_ _041_/A _041_/Y vgnd vpwr scs8hd_inv_8
XANTENNA_mux_top_ipin_5.INVTX1_1_.scs8hd_inv_1_A chanx_right_in[3] vgnd vpwr scs8hd_diode_2
XANTENNA_mem_top_ipin_6.LATCH_4_.latch_D data_in vgnd vpwr scs8hd_diode_2
XANTENNA_mux_bottom_ipin_0.mux_l2_in_0_.TGATE_2_.scs8hd_ebufn_2_A _129_/HI vgnd vpwr
+ scs8hd_diode_2
XFILLER_1_71 vgnd vpwr scs8hd_decap_4
XANTENNA_mux_top_ipin_6.mux_l2_in_0_.TGATE_2_.scs8hd_ebufn_2_A _138_/HI vgnd vpwr
+ scs8hd_diode_2
XANTENNA__056__C address[0] vgnd vpwr scs8hd_diode_2
XFILLER_1_93 vpwr vgnd scs8hd_fill_2
XANTENNA_mem_top_ipin_7.LATCH_2_.latch_D data_in vgnd vpwr scs8hd_diode_2
XFILLER_4_209 vgnd vpwr scs8hd_decap_3
XANTENNA_mem_top_ipin_1.LATCH_1_.latch_SLEEPB _059_/Y vgnd vpwr scs8hd_diode_2
Xmux_top_ipin_6.mux_l1_in_1_.TGATE_2_.scs8hd_ebufn_2 mux_top_ipin_6.INVTX1_5_.scs8hd_inv_1/Y
+ mem_top_ipin_6.LATCH_2_.latch/Q mux_top_ipin_6.mux_l1_in_1_.TGATE_0_.scs8hd_ebufn_2/Z
+ vgnd vpwr scs8hd_ebufn_2
XANTENNA__072__B _074_/B vgnd vpwr scs8hd_diode_2
XFILLER_20_58 vpwr vgnd scs8hd_fill_2
XFILLER_29_12 vpwr vgnd scs8hd_fill_2
Xmux_bottom_ipin_0.INVTX1_0_.scs8hd_inv_1 chanx_left_in[0] mux_bottom_ipin_0.INVTX1_0_.scs8hd_inv_1/Y
+ vgnd vpwr scs8hd_inv_1
XFILLER_6_27 vpwr vgnd scs8hd_fill_2
XFILLER_6_49 vpwr vgnd scs8hd_fill_2
XFILLER_10_91 vgnd vpwr scs8hd_fill_1
XFILLER_19_132 vpwr vgnd scs8hd_fill_2
XANTENNA_mem_bottom_ipin_0.LATCH_5_.latch_SLEEPB _109_/Y vgnd vpwr scs8hd_diode_2
XANTENNA_mux_top_ipin_6.mux_l1_in_0_.TGATE_2_.scs8hd_ebufn_2_TEB mem_top_ipin_6.LATCH_2_.latch/Q
+ vgnd vpwr scs8hd_diode_2
XANTENNA_mux_top_ipin_2.mux_l1_in_0_.TGATE_2_.scs8hd_ebufn_2_A mux_top_ipin_2.INVTX1_2_.scs8hd_inv_1/Y
+ vgnd vpwr scs8hd_diode_2
XANTENNA__083__A _049_/B vgnd vpwr scs8hd_diode_2
XANTENNA__067__B _068_/B vgnd vpwr scs8hd_diode_2
XFILLER_15_36 vpwr vgnd scs8hd_fill_2
XFILLER_15_58 vgnd vpwr scs8hd_decap_3
XPHY_152 vgnd vpwr scs8hd_tapvpwrvgnd_1
XPHY_141 vgnd vpwr scs8hd_tapvpwrvgnd_1
Xmux_top_ipin_4.mux_l1_in_0_.TGATE_0_.scs8hd_ebufn_2 mux_top_ipin_4.INVTX1_0_.scs8hd_inv_1/Y
+ mem_top_ipin_4.LATCH_0_.latch/Q mux_top_ipin_4.mux_l1_in_0_.TGATE_2_.scs8hd_ebufn_2/Z
+ vgnd vpwr scs8hd_ebufn_2
XPHY_130 vgnd vpwr scs8hd_tapvpwrvgnd_1
XPHY_163 vgnd vpwr scs8hd_tapvpwrvgnd_1
XFILLER_21_90 vpwr vgnd scs8hd_fill_2
XANTENNA_mux_top_ipin_0.tap_buf4_0_.scs8hd_inv_1_A mux_top_ipin_0.tap_buf4_0_.scs8hd_inv_1/A
+ vgnd vpwr scs8hd_diode_2
Xmux_top_ipin_0.INVTX1_4_.scs8hd_inv_1 chanx_left_in[7] mux_top_ipin_0.INVTX1_4_.scs8hd_inv_1/Y
+ vgnd vpwr scs8hd_inv_1
XFILLER_22_116 vgnd vpwr scs8hd_decap_6
XFILLER_26_79 vgnd vpwr scs8hd_decap_6
XANTENNA_mux_top_ipin_1.mux_l1_in_0_.TGATE_2_.scs8hd_ebufn_2_TEB mem_top_ipin_1.LATCH_2_.latch/Q
+ vgnd vpwr scs8hd_diode_2
XANTENNA__078__A _052_/X vgnd vpwr scs8hd_diode_2
XFILLER_21_171 vpwr vgnd scs8hd_fill_2
XANTENNA_mux_top_ipin_2.mux_l2_in_0_.TGATE_0_.scs8hd_ebufn_2_A mux_top_ipin_2.mux_l1_in_0_.TGATE_0_.scs8hd_ebufn_2/Z
+ vgnd vpwr scs8hd_diode_2
Xmux_top_ipin_1.mux_l2_in_0_.TGATE_0_.scs8hd_ebufn_2 mux_top_ipin_1.mux_l1_in_0_.TGATE_0_.scs8hd_ebufn_2/Z
+ mem_top_ipin_1.LATCH_3_.latch/Q mux_top_ipin_1.tap_buf4_0_.scs8hd_inv_1/A vgnd vpwr
+ scs8hd_ebufn_2
XFILLER_8_131 vpwr vgnd scs8hd_fill_2
XFILLER_8_142 vpwr vgnd scs8hd_fill_2
XFILLER_27_208 vgnd vpwr scs8hd_decap_4
Xmux_top_ipin_6.INVTX1_1_.scs8hd_inv_1 chanx_right_in[0] mux_top_ipin_6.INVTX1_1_.scs8hd_inv_1/Y
+ vgnd vpwr scs8hd_inv_1
XANTENNA__080__B _079_/B vgnd vpwr scs8hd_diode_2
Xmux_top_ipin_3.tap_buf4_0_.scs8hd_inv_1 mux_top_ipin_3.tap_buf4_0_.scs8hd_inv_1/A
+ bottom_grid_pin_6_ vgnd vpwr scs8hd_inv_1
XFILLER_5_156 vgnd vpwr scs8hd_decap_3
XANTENNA_mux_top_ipin_4.mux_l1_in_1_.TGATE_2_.scs8hd_ebufn_2_TEB mem_top_ipin_4.LATCH_2_.latch/Q
+ vgnd vpwr scs8hd_diode_2
XFILLER_4_93 vpwr vgnd scs8hd_fill_2
XFILLER_4_71 vpwr vgnd scs8hd_fill_2
XANTENNA__075__B _074_/B vgnd vpwr scs8hd_diode_2
Xmux_top_ipin_7.INVTX1_5_.scs8hd_inv_1 chanx_right_in[5] mux_top_ipin_7.INVTX1_5_.scs8hd_inv_1/Y
+ vgnd vpwr scs8hd_inv_1
XFILLER_23_36 vpwr vgnd scs8hd_fill_2
XANTENNA__091__A address[4] vgnd vpwr scs8hd_diode_2
XFILLER_0_29 vpwr vgnd scs8hd_fill_2
XFILLER_14_211 vgnd vpwr scs8hd_fill_1
XFILLER_9_16 vpwr vgnd scs8hd_fill_2
Xmux_bottom_ipin_0.mux_l1_in_0_.TGATE_2_.scs8hd_ebufn_2 mux_bottom_ipin_0.INVTX1_2_.scs8hd_inv_1/Y
+ mem_bottom_ipin_0.LATCH_2_.latch/Q mux_bottom_ipin_0.mux_l2_in_0_.TGATE_0_.scs8hd_ebufn_2/A
+ vgnd vpwr scs8hd_ebufn_2
Xmux_top_ipin_5.mux_l2_in_0_.TGATE_1_.scs8hd_ebufn_2 mux_top_ipin_5.mux_l1_in_1_.TGATE_2_.scs8hd_ebufn_2/Z
+ mem_top_ipin_5.LATCH_4_.latch/Q mux_top_ipin_5.tap_buf4_0_.scs8hd_inv_1/A vgnd vpwr
+ scs8hd_ebufn_2
XANTENNA__086__A _052_/X vgnd vpwr scs8hd_diode_2
X_040_ _040_/A _040_/Y vgnd vpwr scs8hd_inv_8
XFILLER_1_3 vgnd vpwr scs8hd_fill_1
XANTENNA_mem_bottom_ipin_2.LATCH_4_.latch_D data_in vgnd vpwr scs8hd_diode_2
XANTENNA_mux_top_ipin_3.mux_l1_in_0_.TGATE_1_.scs8hd_ebufn_2_TEB mem_top_ipin_3.LATCH_1_.latch/Q
+ vgnd vpwr scs8hd_diode_2
XFILLER_10_81 vpwr vgnd scs8hd_fill_2
XFILLER_19_177 vgnd vpwr scs8hd_decap_4
XANTENNA_mux_bottom_ipin_2.INVTX1_5_.scs8hd_inv_1_A chanx_right_in[6] vgnd vpwr scs8hd_diode_2
XANTENNA__083__B address[5] vgnd vpwr scs8hd_diode_2
XFILLER_16_103 vgnd vpwr scs8hd_decap_8
XPHY_164 vgnd vpwr scs8hd_tapvpwrvgnd_1
XFILLER_31_139 vpwr vgnd scs8hd_fill_2
XFILLER_31_128 vpwr vgnd scs8hd_fill_2
XPHY_153 vgnd vpwr scs8hd_tapvpwrvgnd_1
XPHY_142 vgnd vpwr scs8hd_tapvpwrvgnd_1
XANTENNA_mux_top_ipin_6.mux_l1_in_1_.TGATE_1_.scs8hd_ebufn_2_TEB mem_top_ipin_6.LATCH_1_.latch/Q
+ vgnd vpwr scs8hd_diode_2
XFILLER_16_158 vgnd vpwr scs8hd_decap_4
XPHY_120 vgnd vpwr scs8hd_tapvpwrvgnd_1
XPHY_131 vgnd vpwr scs8hd_tapvpwrvgnd_1
Xmux_top_ipin_1.mux_l1_in_1_.TGATE_1_.scs8hd_ebufn_2 mux_top_ipin_1.INVTX1_4_.scs8hd_inv_1/Y
+ mem_top_ipin_1.LATCH_1_.latch/Q mux_top_ipin_1.mux_l1_in_1_.TGATE_0_.scs8hd_ebufn_2/Z
+ vgnd vpwr scs8hd_ebufn_2
XPHY_0 vgnd vpwr scs8hd_decap_3
XFILLER_7_71 vpwr vgnd scs8hd_fill_2
XANTENNA__078__B _079_/B vgnd vpwr scs8hd_diode_2
XFILLER_26_36 vgnd vpwr scs8hd_fill_1
XANTENNA__094__A _054_/X vgnd vpwr scs8hd_diode_2
XANTENNA_mem_top_ipin_6.LATCH_1_.latch_SLEEPB _096_/Y vgnd vpwr scs8hd_diode_2
Xmem_top_ipin_2.LATCH_2_.latch data_in mem_top_ipin_2.LATCH_2_.latch/Q _066_/Y vgnd
+ vpwr scs8hd_lpflow_inputisolatch_1
XANTENNA_mux_top_ipin_6.mux_l1_in_1_.TGATE_2_.scs8hd_ebufn_2_A mux_top_ipin_6.INVTX1_5_.scs8hd_inv_1/Y
+ vgnd vpwr scs8hd_diode_2
XANTENNA_mux_bottom_ipin_0.mux_l1_in_1_.TGATE_2_.scs8hd_ebufn_2_A mux_bottom_ipin_0.INVTX1_5_.scs8hd_inv_1/Y
+ vgnd vpwr scs8hd_diode_2
XFILLER_12_194 vgnd vpwr scs8hd_decap_4
XFILLER_8_176 vpwr vgnd scs8hd_fill_2
XANTENNA_mux_top_ipin_1.mux_l1_in_1_.TGATE_1_.scs8hd_ebufn_2_TEB mem_top_ipin_1.LATCH_1_.latch/Q
+ vgnd vpwr scs8hd_diode_2
XANTENNA__089__A _058_/X vgnd vpwr scs8hd_diode_2
XFILLER_18_209 vgnd vpwr scs8hd_decap_3
Xmem_top_ipin_4.LATCH_5_.latch data_in mem_top_ipin_4.LATCH_5_.latch/Q _077_/Y vgnd
+ vpwr scs8hd_lpflow_inputisolatch_1
XFILLER_5_168 vgnd vpwr scs8hd_decap_3
Xmux_top_ipin_5.mux_l1_in_1_.TGATE_2_.scs8hd_ebufn_2 mux_top_ipin_5.INVTX1_5_.scs8hd_inv_1/Y
+ mem_top_ipin_5.LATCH_2_.latch/Q mux_top_ipin_5.mux_l1_in_1_.TGATE_2_.scs8hd_ebufn_2/Z
+ vgnd vpwr scs8hd_ebufn_2
XFILLER_4_50 vpwr vgnd scs8hd_fill_2
XANTENNA_mux_top_ipin_5.mux_l1_in_0_.TGATE_0_.scs8hd_ebufn_2_TEB mem_top_ipin_5.LATCH_0_.latch/Q
+ vgnd vpwr scs8hd_diode_2
XANTENNA__091__B _122_/B vgnd vpwr scs8hd_diode_2
XFILLER_2_149 vpwr vgnd scs8hd_fill_2
Xmux_top_ipin_4.INVTX1_1_.scs8hd_inv_1 chanx_right_in[2] mux_top_ipin_4.INVTX1_1_.scs8hd_inv_1/Y
+ vgnd vpwr scs8hd_inv_1
XFILLER_13_81 vgnd vpwr scs8hd_fill_1
XFILLER_1_193 vpwr vgnd scs8hd_fill_2
XANTENNA__086__B _088_/B vgnd vpwr scs8hd_diode_2
Xmux_top_ipin_3.mux_l1_in_0_.TGATE_0_.scs8hd_ebufn_2 mux_top_ipin_3.INVTX1_0_.scs8hd_inv_1/Y
+ mem_top_ipin_3.LATCH_0_.latch/Q mux_top_ipin_3.mux_l1_in_0_.TGATE_2_.scs8hd_ebufn_2/Z
+ vgnd vpwr scs8hd_ebufn_2
XFILLER_7_208 vpwr vgnd scs8hd_fill_2
XANTENNA_mux_top_ipin_2.mux_l1_in_1_.TGATE_0_.scs8hd_ebufn_2_A mux_top_ipin_2.INVTX1_3_.scs8hd_inv_1/Y
+ vgnd vpwr scs8hd_diode_2
XFILLER_11_204 vpwr vgnd scs8hd_fill_2
Xmem_bottom_ipin_2.LATCH_2_.latch data_in mem_bottom_ipin_2.LATCH_2_.latch/Q _119_/Y
+ vgnd vpwr scs8hd_lpflow_inputisolatch_1
XANTENNA_mux_top_ipin_0.mux_l1_in_0_.TGATE_0_.scs8hd_ebufn_2_TEB mem_top_ipin_0.LATCH_0_.latch/Q
+ vgnd vpwr scs8hd_diode_2
Xmux_top_ipin_5.INVTX1_5_.scs8hd_inv_1 chanx_right_in[8] mux_top_ipin_5.INVTX1_5_.scs8hd_inv_1/Y
+ vgnd vpwr scs8hd_inv_1
XANTENNA_mem_top_ipin_4.LATCH_2_.latch_SLEEPB _080_/Y vgnd vpwr scs8hd_diode_2
XANTENNA_mux_top_ipin_0.INVTX1_4_.scs8hd_inv_1_A chanx_left_in[7] vgnd vpwr scs8hd_diode_2
XFILLER_24_80 vgnd vpwr scs8hd_fill_1
X_099_ _051_/A _101_/B _099_/Y vgnd vpwr scs8hd_nor2_4
XFILLER_1_40 vpwr vgnd scs8hd_fill_2
XANTENNA_mux_top_ipin_7.mux_l2_in_0_.TGATE_2_.scs8hd_ebufn_2_A _139_/HI vgnd vpwr
+ scs8hd_diode_2
XANTENNA_mux_top_ipin_4.INVTX1_5_.scs8hd_inv_1_A chanx_right_in[7] vgnd vpwr scs8hd_diode_2
XANTENNA_mux_bottom_ipin_0.INVTX1_2_.scs8hd_inv_1_A chanx_left_in[4] vgnd vpwr scs8hd_diode_2