* NGSPICE file created from cbx_1__8_.ext - technology: sky130A

* Black-box entry subcircuit for sky130_fd_sc_hd__dfxtp_1 abstract view
.subckt sky130_fd_sc_hd__dfxtp_1 D Q CLK VGND VNB VPB VPWR
.ends

* Black-box entry subcircuit for sky130_fd_sc_hd__fill_2 abstract view
.subckt sky130_fd_sc_hd__fill_2 VGND VNB VPB VPWR
.ends

* Black-box entry subcircuit for sky130_fd_sc_hd__mux2_1 abstract view
.subckt sky130_fd_sc_hd__mux2_1 A0 A1 S X VGND VNB VPB VPWR
.ends

* Black-box entry subcircuit for sky130_fd_sc_hd__buf_2 abstract view
.subckt sky130_fd_sc_hd__buf_2 A X VGND VNB VPB VPWR
.ends

* Black-box entry subcircuit for sky130_fd_sc_hd__clkbuf_1 abstract view
.subckt sky130_fd_sc_hd__clkbuf_1 A X VGND VNB VPB VPWR
.ends

* Black-box entry subcircuit for sky130_fd_sc_hd__decap_6 abstract view
.subckt sky130_fd_sc_hd__decap_6 VGND VNB VPB VPWR
.ends

* Black-box entry subcircuit for sky130_fd_sc_hd__fill_1 abstract view
.subckt sky130_fd_sc_hd__fill_1 VGND VNB VPB VPWR
.ends

* Black-box entry subcircuit for sky130_fd_sc_hd__decap_4 abstract view
.subckt sky130_fd_sc_hd__decap_4 VGND VNB VPB VPWR
.ends

* Black-box entry subcircuit for sky130_fd_sc_hd__decap_3 abstract view
.subckt sky130_fd_sc_hd__decap_3 VGND VNB VPB VPWR
.ends

* Black-box entry subcircuit for sky130_fd_sc_hd__buf_4 abstract view
.subckt sky130_fd_sc_hd__buf_4 A X VGND VNB VPB VPWR
.ends

* Black-box entry subcircuit for sky130_fd_sc_hd__conb_1 abstract view
.subckt sky130_fd_sc_hd__conb_1 HI LO VGND VNB VPB VPWR
.ends

* Black-box entry subcircuit for sky130_fd_sc_hd__tapvpwrvgnd_1 abstract view
.subckt sky130_fd_sc_hd__tapvpwrvgnd_1 VGND VPWR
.ends

* Black-box entry subcircuit for sky130_fd_sc_hd__clkbuf_16 abstract view
.subckt sky130_fd_sc_hd__clkbuf_16 A X VGND VNB VPB VPWR
.ends

* Black-box entry subcircuit for sky130_fd_sc_hd__decap_8 abstract view
.subckt sky130_fd_sc_hd__decap_8 VGND VNB VPB VPWR
.ends

* Black-box entry subcircuit for sky130_fd_sc_hd__diode_2 abstract view
.subckt sky130_fd_sc_hd__diode_2 DIODE VGND VNB VPB VPWR
.ends

* Black-box entry subcircuit for sky130_fd_sc_hd__decap_12 abstract view
.subckt sky130_fd_sc_hd__decap_12 VGND VNB VPB VPWR
.ends

.subckt cbx_1__8_ bottom_grid_pin_0_ bottom_grid_pin_10_ bottom_grid_pin_11_ bottom_grid_pin_12_
+ bottom_grid_pin_13_ bottom_grid_pin_14_ bottom_grid_pin_15_ bottom_grid_pin_1_ bottom_grid_pin_2_
+ bottom_grid_pin_3_ bottom_grid_pin_4_ bottom_grid_pin_5_ bottom_grid_pin_6_ bottom_grid_pin_7_
+ bottom_grid_pin_8_ bottom_grid_pin_9_ ccff_head ccff_tail chanx_left_in[0] chanx_left_in[10]
+ chanx_left_in[11] chanx_left_in[12] chanx_left_in[13] chanx_left_in[14] chanx_left_in[15]
+ chanx_left_in[16] chanx_left_in[17] chanx_left_in[18] chanx_left_in[19] chanx_left_in[1]
+ chanx_left_in[2] chanx_left_in[3] chanx_left_in[4] chanx_left_in[5] chanx_left_in[6]
+ chanx_left_in[7] chanx_left_in[8] chanx_left_in[9] chanx_left_out[0] chanx_left_out[10]
+ chanx_left_out[11] chanx_left_out[12] chanx_left_out[13] chanx_left_out[14] chanx_left_out[15]
+ chanx_left_out[16] chanx_left_out[17] chanx_left_out[18] chanx_left_out[19] chanx_left_out[1]
+ chanx_left_out[2] chanx_left_out[3] chanx_left_out[4] chanx_left_out[5] chanx_left_out[6]
+ chanx_left_out[7] chanx_left_out[8] chanx_left_out[9] chanx_right_in[0] chanx_right_in[10]
+ chanx_right_in[11] chanx_right_in[12] chanx_right_in[13] chanx_right_in[14] chanx_right_in[15]
+ chanx_right_in[16] chanx_right_in[17] chanx_right_in[18] chanx_right_in[19] chanx_right_in[1]
+ chanx_right_in[2] chanx_right_in[3] chanx_right_in[4] chanx_right_in[5] chanx_right_in[6]
+ chanx_right_in[7] chanx_right_in[8] chanx_right_in[9] chanx_right_out[0] chanx_right_out[10]
+ chanx_right_out[11] chanx_right_out[12] chanx_right_out[13] chanx_right_out[14]
+ chanx_right_out[15] chanx_right_out[16] chanx_right_out[17] chanx_right_out[18]
+ chanx_right_out[19] chanx_right_out[1] chanx_right_out[2] chanx_right_out[3] chanx_right_out[4]
+ chanx_right_out[5] chanx_right_out[6] chanx_right_out[7] chanx_right_out[8] chanx_right_out[9]
+ prog_clk top_grid_pin_0_ VPWR VGND
Xmem_top_ipin_8.sky130_fd_sc_hd__dfxtp_1_0_ mux_top_ipin_7.mux_l4_in_0_/S mux_top_ipin_8.mux_l1_in_2_/S
+ clkbuf_3_3_0_prog_clk/X VGND VGND VPWR VPWR sky130_fd_sc_hd__dfxtp_1
XFILLER_3_12 VGND VGND VPWR VPWR sky130_fd_sc_hd__fill_2
XFILLER_3_78 VGND VGND VPWR VPWR sky130_fd_sc_hd__fill_2
XFILLER_3_89 VGND VGND VPWR VPWR sky130_fd_sc_hd__fill_2
Xmux_top_ipin_13.mux_l3_in_0_ mux_top_ipin_13.mux_l2_in_1_/X mux_top_ipin_13.mux_l2_in_0_/X
+ mux_top_ipin_13.mux_l3_in_0_/S mux_top_ipin_13.mux_l3_in_0_/X VGND VGND VPWR VPWR
+ sky130_fd_sc_hd__mux2_1
X_66_ chanx_left_in[7] chanx_right_out[7] VGND VGND VPWR VPWR sky130_fd_sc_hd__buf_2
Xmux_top_ipin_6.mux_l2_in_0_ chanx_left_in[3] mux_top_ipin_6.mux_l1_in_0_/X mux_top_ipin_6.mux_l2_in_0_/S
+ mux_top_ipin_6.mux_l2_in_0_/X VGND VGND VPWR VPWR sky130_fd_sc_hd__mux2_1
X_49_ chanx_right_in[4] chanx_left_out[4] VGND VGND VPWR VPWR sky130_fd_sc_hd__buf_2
Xclkbuf_3_4_0_prog_clk clkbuf_3_4_0_prog_clk/A clkbuf_3_4_0_prog_clk/X VGND VGND VPWR
+ VPWR sky130_fd_sc_hd__clkbuf_1
XFILLER_18_64 VGND VGND VPWR VPWR sky130_fd_sc_hd__fill_2
Xmux_top_ipin_13.mux_l2_in_1_ chanx_left_in[10] chanx_right_in[2] mux_top_ipin_13.mux_l2_in_3_/S
+ mux_top_ipin_13.mux_l2_in_1_/X VGND VGND VPWR VPWR sky130_fd_sc_hd__mux2_1
XFILLER_20_32 VGND VGND VPWR VPWR sky130_fd_sc_hd__decap_6
XFILLER_13_3 VGND VGND VPWR VPWR sky130_fd_sc_hd__fill_2
XFILLER_17_109 VGND VGND VPWR VPWR sky130_fd_sc_hd__fill_2
XFILLER_15_98 VGND VGND VPWR VPWR sky130_fd_sc_hd__fill_2
XFILLER_22_145 VGND VGND VPWR VPWR sky130_fd_sc_hd__fill_2
XFILLER_22_134 VGND VGND VPWR VPWR sky130_fd_sc_hd__fill_2
XFILLER_22_123 VGND VGND VPWR VPWR sky130_fd_sc_hd__fill_1
Xmux_top_ipin_1.mux_l1_in_0_ chanx_right_in[0] chanx_left_in[0] mux_top_ipin_1.mux_l1_in_0_/S
+ mux_top_ipin_1.mux_l1_in_0_/X VGND VGND VPWR VPWR sky130_fd_sc_hd__mux2_1
XFILLER_9_116 VGND VGND VPWR VPWR sky130_fd_sc_hd__decap_6
X_65_ chanx_left_in[8] chanx_right_out[8] VGND VGND VPWR VPWR sky130_fd_sc_hd__buf_2
XFILLER_2_166 VGND VGND VPWR VPWR sky130_fd_sc_hd__fill_2
X_48_ chanx_right_in[5] chanx_left_out[5] VGND VGND VPWR VPWR sky130_fd_sc_hd__buf_2
XFILLER_18_54 VGND VGND VPWR VPWR sky130_fd_sc_hd__fill_1
Xmux_top_ipin_13.mux_l2_in_0_ chanx_left_in[2] mux_top_ipin_13.mux_l1_in_0_/X mux_top_ipin_13.mux_l2_in_3_/S
+ mux_top_ipin_13.mux_l2_in_0_/X VGND VGND VPWR VPWR sky130_fd_sc_hd__mux2_1
Xmux_top_ipin_6.mux_l1_in_0_ chanx_right_in[1] chanx_left_in[1] mux_top_ipin_6.mux_l1_in_0_/S
+ mux_top_ipin_6.mux_l1_in_0_/X VGND VGND VPWR VPWR sky130_fd_sc_hd__mux2_1
XFILLER_20_66 VGND VGND VPWR VPWR sky130_fd_sc_hd__decap_4
XFILLER_20_11 VGND VGND VPWR VPWR sky130_fd_sc_hd__fill_2
XFILLER_16_143 VGND VGND VPWR VPWR sky130_fd_sc_hd__decap_4
Xmem_bottom_ipin_0.sky130_fd_sc_hd__dfxtp_1_3_ mux_bottom_ipin_0.mux_l3_in_1_/S mux_bottom_ipin_0.mux_l4_in_0_/S
+ clkbuf_3_2_0_prog_clk/X VGND VGND VPWR VPWR sky130_fd_sc_hd__dfxtp_1
XFILLER_3_58 VGND VGND VPWR VPWR sky130_fd_sc_hd__decap_3
X_64_ chanx_left_in[9] chanx_right_out[9] VGND VGND VPWR VPWR sky130_fd_sc_hd__buf_2
XFILLER_4_90 VGND VGND VPWR VPWR sky130_fd_sc_hd__fill_2
Xmux_top_ipin_4.sky130_fd_sc_hd__buf_4_0_ mux_top_ipin_4.mux_l4_in_0_/X bottom_grid_pin_4_
+ VGND VGND VPWR VPWR sky130_fd_sc_hd__buf_4
X_47_ chanx_right_in[6] chanx_left_out[6] VGND VGND VPWR VPWR sky130_fd_sc_hd__buf_2
XFILLER_18_99 VGND VGND VPWR VPWR sky130_fd_sc_hd__fill_2
XFILLER_22_9 VGND VGND VPWR VPWR sky130_fd_sc_hd__fill_1
XFILLER_6_69 VGND VGND VPWR VPWR sky130_fd_sc_hd__decap_3
Xmux_top_ipin_13.mux_l1_in_0_ chanx_right_in[0] chanx_left_in[0] mux_top_ipin_13.mux_l1_in_0_/S
+ mux_top_ipin_13.mux_l1_in_0_/X VGND VGND VPWR VPWR sky130_fd_sc_hd__mux2_1
Xmem_bottom_ipin_0.sky130_fd_sc_hd__dfxtp_1_2_ mux_bottom_ipin_0.mux_l2_in_3_/S mux_bottom_ipin_0.mux_l3_in_1_/S
+ clkbuf_3_2_0_prog_clk/X VGND VGND VPWR VPWR sky130_fd_sc_hd__dfxtp_1
Xclkbuf_2_1_0_prog_clk clkbuf_2_1_0_prog_clk/A clkbuf_3_3_0_prog_clk/A VGND VGND VPWR
+ VPWR sky130_fd_sc_hd__clkbuf_1
XFILLER_8_140 VGND VGND VPWR VPWR sky130_fd_sc_hd__fill_2
XFILLER_8_151 VGND VGND VPWR VPWR sky130_fd_sc_hd__fill_2
XFILLER_12_68 VGND VGND VPWR VPWR sky130_fd_sc_hd__decap_4
XFILLER_5_165 VGND VGND VPWR VPWR sky130_fd_sc_hd__decap_3
X_63_ chanx_left_in[10] chanx_right_out[10] VGND VGND VPWR VPWR sky130_fd_sc_hd__buf_2
XFILLER_2_102 VGND VGND VPWR VPWR sky130_fd_sc_hd__decap_3
X_46_ chanx_right_in[7] chanx_left_out[7] VGND VGND VPWR VPWR sky130_fd_sc_hd__buf_2
X_29_ _29_/HI _29_/LO VGND VGND VPWR VPWR sky130_fd_sc_hd__conb_1
XFILLER_20_79 VGND VGND VPWR VPWR sky130_fd_sc_hd__fill_2
Xclkbuf_3_3_0_prog_clk clkbuf_3_3_0_prog_clk/A clkbuf_3_3_0_prog_clk/X VGND VGND VPWR
+ VPWR sky130_fd_sc_hd__clkbuf_1
Xmux_top_ipin_11.sky130_fd_sc_hd__buf_4_0_ mux_top_ipin_11.mux_l4_in_0_/X bottom_grid_pin_11_
+ VGND VGND VPWR VPWR sky130_fd_sc_hd__buf_4
XFILLER_6_26 VGND VGND VPWR VPWR sky130_fd_sc_hd__fill_2
XFILLER_6_48 VGND VGND VPWR VPWR sky130_fd_sc_hd__fill_2
Xmux_bottom_ipin_0.sky130_fd_sc_hd__buf_4_0_ mux_bottom_ipin_0.mux_l4_in_0_/X top_grid_pin_0_
+ VGND VGND VPWR VPWR sky130_fd_sc_hd__buf_4
XFILLER_19_120 VGND VGND VPWR VPWR sky130_fd_sc_hd__fill_2
Xmem_bottom_ipin_0.sky130_fd_sc_hd__dfxtp_1_1_ mux_bottom_ipin_0.mux_l1_in_1_/S mux_bottom_ipin_0.mux_l2_in_3_/S
+ clkbuf_3_3_0_prog_clk/X VGND VGND VPWR VPWR sky130_fd_sc_hd__dfxtp_1
Xmux_top_ipin_2.mux_l2_in_3_ _30_/HI chanx_right_in[15] mux_top_ipin_2.mux_l2_in_3_/S
+ mux_top_ipin_2.mux_l2_in_3_/X VGND VGND VPWR VPWR sky130_fd_sc_hd__mux2_1
XFILLER_8_130 VGND VGND VPWR VPWR sky130_fd_sc_hd__fill_2
XFILLER_8_163 VGND VGND VPWR VPWR sky130_fd_sc_hd__decap_4
XFILLER_10_118 VGND VGND VPWR VPWR sky130_fd_sc_hd__decap_4
X_62_ chanx_left_in[11] chanx_right_out[11] VGND VGND VPWR VPWR sky130_fd_sc_hd__buf_2
XFILLER_2_147 VGND VGND VPWR VPWR sky130_fd_sc_hd__decap_6
XFILLER_9_59 VGND VGND VPWR VPWR sky130_fd_sc_hd__fill_2
Xmux_top_ipin_2.mux_l4_in_0_ mux_top_ipin_2.mux_l3_in_1_/X mux_top_ipin_2.mux_l3_in_0_/X
+ mux_top_ipin_2.mux_l4_in_0_/S mux_top_ipin_2.mux_l4_in_0_/X VGND VGND VPWR VPWR
+ sky130_fd_sc_hd__mux2_1
X_45_ chanx_right_in[8] chanx_left_out[8] VGND VGND VPWR VPWR sky130_fd_sc_hd__buf_2
X_28_ _28_/HI _28_/LO VGND VGND VPWR VPWR sky130_fd_sc_hd__conb_1
XFILLER_1_60 VGND VGND VPWR VPWR sky130_fd_sc_hd__fill_1
Xmux_top_ipin_7.mux_l2_in_3_ _18_/HI chanx_right_in[18] mux_top_ipin_7.mux_l2_in_0_/S
+ mux_top_ipin_7.mux_l2_in_3_/X VGND VGND VPWR VPWR sky130_fd_sc_hd__mux2_1
Xmux_top_ipin_2.mux_l3_in_1_ mux_top_ipin_2.mux_l2_in_3_/X mux_top_ipin_2.mux_l2_in_2_/X
+ mux_top_ipin_2.mux_l3_in_1_/S mux_top_ipin_2.mux_l3_in_1_/X VGND VGND VPWR VPWR
+ sky130_fd_sc_hd__mux2_1
Xmem_bottom_ipin_0.sky130_fd_sc_hd__dfxtp_1_0_ ccff_head mux_bottom_ipin_0.mux_l1_in_1_/S
+ clkbuf_3_3_0_prog_clk/X VGND VGND VPWR VPWR sky130_fd_sc_hd__dfxtp_1
XFILLER_7_92 VGND VGND VPWR VPWR sky130_fd_sc_hd__fill_2
Xmux_top_ipin_2.mux_l2_in_2_ chanx_left_in[15] chanx_right_in[7] mux_top_ipin_2.mux_l2_in_3_/S
+ mux_top_ipin_2.mux_l2_in_2_/X VGND VGND VPWR VPWR sky130_fd_sc_hd__mux2_1
Xmux_top_ipin_7.mux_l4_in_0_ mux_top_ipin_7.mux_l3_in_1_/X mux_top_ipin_7.mux_l3_in_0_/X
+ mux_top_ipin_7.mux_l4_in_0_/S mux_top_ipin_7.mux_l4_in_0_/X VGND VGND VPWR VPWR
+ sky130_fd_sc_hd__mux2_1
XFILLER_16_90 VGND VGND VPWR VPWR sky130_fd_sc_hd__fill_2
XFILLER_5_9 VGND VGND VPWR VPWR sky130_fd_sc_hd__fill_2
X_61_ chanx_left_in[12] chanx_right_out[12] VGND VGND VPWR VPWR sky130_fd_sc_hd__buf_2
Xmux_top_ipin_7.mux_l3_in_1_ mux_top_ipin_7.mux_l2_in_3_/X mux_top_ipin_7.mux_l2_in_2_/X
+ mux_top_ipin_7.mux_l3_in_1_/S mux_top_ipin_7.mux_l3_in_1_/X VGND VGND VPWR VPWR
+ sky130_fd_sc_hd__mux2_1
XFILLER_0_29 VGND VGND VPWR VPWR sky130_fd_sc_hd__fill_2
XFILLER_0_18 VGND VGND VPWR VPWR sky130_fd_sc_hd__fill_2
XFILLER_2_137 VGND VGND VPWR VPWR sky130_fd_sc_hd__fill_1
X_44_ chanx_right_in[9] chanx_left_out[9] VGND VGND VPWR VPWR sky130_fd_sc_hd__buf_2
XFILLER_1_3 VGND VGND VPWR VPWR sky130_fd_sc_hd__fill_1
X_27_ _27_/HI _27_/LO VGND VGND VPWR VPWR sky130_fd_sc_hd__conb_1
Xmux_top_ipin_7.mux_l2_in_2_ chanx_left_in[18] chanx_right_in[12] mux_top_ipin_7.mux_l2_in_0_/S
+ mux_top_ipin_7.mux_l2_in_2_/X VGND VGND VPWR VPWR sky130_fd_sc_hd__mux2_1
XFILLER_20_48 VGND VGND VPWR VPWR sky130_fd_sc_hd__fill_2
XFILLER_19_166 VGND VGND VPWR VPWR sky130_fd_sc_hd__fill_2
Xmux_top_ipin_2.mux_l3_in_0_ mux_top_ipin_2.mux_l2_in_1_/X mux_top_ipin_2.mux_l2_in_0_/X
+ mux_top_ipin_2.mux_l3_in_1_/S mux_top_ipin_2.mux_l3_in_0_/X VGND VGND VPWR VPWR
+ sky130_fd_sc_hd__mux2_1
Xmux_top_ipin_14.mux_l2_in_3_ _28_/HI chanx_right_in[19] mux_top_ipin_14.mux_l2_in_0_/S
+ mux_top_ipin_14.mux_l2_in_3_/X VGND VGND VPWR VPWR sky130_fd_sc_hd__mux2_1
XFILLER_15_59 VGND VGND VPWR VPWR sky130_fd_sc_hd__fill_2
XFILLER_21_91 VGND VGND VPWR VPWR sky130_fd_sc_hd__fill_2
XFILLER_16_125 VGND VGND VPWR VPWR sky130_fd_sc_hd__fill_2
XPHY_0 VGND VGND VPWR VPWR sky130_fd_sc_hd__decap_3
XFILLER_21_150 VGND VGND VPWR VPWR sky130_fd_sc_hd__decap_4
Xmux_top_ipin_2.mux_l2_in_1_ chanx_left_in[7] chanx_right_in[3] mux_top_ipin_2.mux_l2_in_3_/S
+ mux_top_ipin_2.mux_l2_in_1_/X VGND VGND VPWR VPWR sky130_fd_sc_hd__mux2_1
Xmux_top_ipin_14.mux_l4_in_0_ mux_top_ipin_14.mux_l3_in_1_/X mux_top_ipin_14.mux_l3_in_0_/X
+ mux_top_ipin_14.mux_l4_in_0_/S mux_top_ipin_14.mux_l4_in_0_/X VGND VGND VPWR VPWR
+ sky130_fd_sc_hd__mux2_1
X_60_ chanx_left_in[13] chanx_right_out[13] VGND VGND VPWR VPWR sky130_fd_sc_hd__buf_2
Xclkbuf_2_0_0_prog_clk clkbuf_2_1_0_prog_clk/A clkbuf_3_1_0_prog_clk/A VGND VGND VPWR
+ VPWR sky130_fd_sc_hd__clkbuf_1
Xmux_top_ipin_7.mux_l3_in_0_ mux_top_ipin_7.mux_l2_in_1_/X mux_top_ipin_7.mux_l2_in_0_/X
+ mux_top_ipin_7.mux_l3_in_1_/S mux_top_ipin_7.mux_l3_in_0_/X VGND VGND VPWR VPWR
+ sky130_fd_sc_hd__mux2_1
Xmux_top_ipin_7.sky130_fd_sc_hd__buf_4_0_ mux_top_ipin_7.mux_l4_in_0_/X bottom_grid_pin_7_
+ VGND VGND VPWR VPWR sky130_fd_sc_hd__buf_4
X_43_ chanx_right_in[10] chanx_left_out[10] VGND VGND VPWR VPWR sky130_fd_sc_hd__buf_2
Xmux_top_ipin_14.mux_l3_in_1_ mux_top_ipin_14.mux_l2_in_3_/X mux_top_ipin_14.mux_l2_in_2_/X
+ mux_top_ipin_14.mux_l3_in_1_/S mux_top_ipin_14.mux_l3_in_1_/X VGND VGND VPWR VPWR
+ sky130_fd_sc_hd__mux2_1
XFILLER_18_48 VGND VGND VPWR VPWR sky130_fd_sc_hd__decap_6
XFILLER_20_38 VGND VGND VPWR VPWR sky130_fd_sc_hd__fill_1
X_26_ _26_/HI _26_/LO VGND VGND VPWR VPWR sky130_fd_sc_hd__conb_1
Xmux_top_ipin_7.mux_l2_in_1_ chanx_left_in[12] mux_top_ipin_7.mux_l1_in_2_/X mux_top_ipin_7.mux_l2_in_0_/S
+ mux_top_ipin_7.mux_l2_in_1_/X VGND VGND VPWR VPWR sky130_fd_sc_hd__mux2_1
XFILLER_19_145 VGND VGND VPWR VPWR sky130_fd_sc_hd__decap_4
XFILLER_19_91 VGND VGND VPWR VPWR sky130_fd_sc_hd__fill_2
XFILLER_13_9 VGND VGND VPWR VPWR sky130_fd_sc_hd__fill_2
Xmux_top_ipin_14.mux_l2_in_2_ chanx_left_in[19] chanx_right_in[11] mux_top_ipin_14.mux_l2_in_0_/S
+ mux_top_ipin_14.mux_l2_in_2_/X VGND VGND VPWR VPWR sky130_fd_sc_hd__mux2_1
Xmux_top_ipin_7.mux_l1_in_2_ chanx_right_in[8] chanx_left_in[8] mux_top_ipin_7.mux_l1_in_1_/S
+ mux_top_ipin_7.mux_l1_in_2_/X VGND VGND VPWR VPWR sky130_fd_sc_hd__mux2_1
XPHY_1 VGND VGND VPWR VPWR sky130_fd_sc_hd__decap_3
XFILLER_13_118 VGND VGND VPWR VPWR sky130_fd_sc_hd__decap_4
XFILLER_13_107 VGND VGND VPWR VPWR sky130_fd_sc_hd__fill_2
Xclkbuf_3_2_0_prog_clk clkbuf_3_3_0_prog_clk/A clkbuf_3_2_0_prog_clk/X VGND VGND VPWR
+ VPWR sky130_fd_sc_hd__clkbuf_1
Xmux_top_ipin_2.mux_l2_in_0_ chanx_left_in[3] mux_top_ipin_2.mux_l1_in_0_/X mux_top_ipin_2.mux_l2_in_3_/S
+ mux_top_ipin_2.mux_l2_in_0_/X VGND VGND VPWR VPWR sky130_fd_sc_hd__mux2_1
XFILLER_12_151 VGND VGND VPWR VPWR sky130_fd_sc_hd__fill_2
XFILLER_5_147 VGND VGND VPWR VPWR sky130_fd_sc_hd__fill_2
Xmem_top_ipin_1.sky130_fd_sc_hd__dfxtp_1_3_ mux_top_ipin_1.mux_l3_in_0_/S mux_top_ipin_1.mux_l4_in_0_/S
+ clkbuf_3_0_0_prog_clk/X VGND VGND VPWR VPWR sky130_fd_sc_hd__dfxtp_1
X_42_ chanx_right_in[11] chanx_left_out[11] VGND VGND VPWR VPWR sky130_fd_sc_hd__buf_2
Xmux_top_ipin_14.mux_l3_in_0_ mux_top_ipin_14.mux_l2_in_1_/X mux_top_ipin_14.mux_l2_in_0_/X
+ mux_top_ipin_14.mux_l3_in_1_/S mux_top_ipin_14.mux_l3_in_0_/X VGND VGND VPWR VPWR
+ sky130_fd_sc_hd__mux2_1
Xmem_top_ipin_11.sky130_fd_sc_hd__dfxtp_1_3_ mux_top_ipin_11.mux_l3_in_0_/S mux_top_ipin_11.mux_l4_in_0_/S
+ clkbuf_3_4_0_prog_clk/X VGND VGND VPWR VPWR sky130_fd_sc_hd__dfxtp_1
Xmux_top_ipin_7.mux_l2_in_0_ mux_top_ipin_7.mux_l1_in_1_/X mux_top_ipin_7.mux_l1_in_0_/X
+ mux_top_ipin_7.mux_l2_in_0_/S mux_top_ipin_7.mux_l2_in_0_/X VGND VGND VPWR VPWR
+ sky130_fd_sc_hd__mux2_1
X_25_ _25_/HI _25_/LO VGND VGND VPWR VPWR sky130_fd_sc_hd__conb_1
XFILLER_19_102 VGND VGND VPWR VPWR sky130_fd_sc_hd__decap_3
XPHY_100 VGND VPWR sky130_fd_sc_hd__tapvpwrvgnd_1
Xmux_top_ipin_14.mux_l2_in_1_ chanx_left_in[11] chanx_right_in[3] mux_top_ipin_14.mux_l2_in_0_/S
+ mux_top_ipin_14.mux_l2_in_1_/X VGND VGND VPWR VPWR sky130_fd_sc_hd__mux2_1
Xmux_top_ipin_14.sky130_fd_sc_hd__buf_4_0_ mux_top_ipin_14.mux_l4_in_0_/X bottom_grid_pin_14_
+ VGND VGND VPWR VPWR sky130_fd_sc_hd__buf_4
XFILLER_22_119 VGND VGND VPWR VPWR sky130_fd_sc_hd__decap_4
XFILLER_22_108 VGND VGND VPWR VPWR sky130_fd_sc_hd__fill_2
Xmux_top_ipin_7.mux_l1_in_1_ chanx_right_in[2] chanx_left_in[2] mux_top_ipin_7.mux_l1_in_1_/S
+ mux_top_ipin_7.mux_l1_in_1_/X VGND VGND VPWR VPWR sky130_fd_sc_hd__mux2_1
XPHY_2 VGND VGND VPWR VPWR sky130_fd_sc_hd__decap_3
XFILLER_7_62 VGND VGND VPWR VPWR sky130_fd_sc_hd__decap_3
XFILLER_12_163 VGND VGND VPWR VPWR sky130_fd_sc_hd__decap_4
Xmem_top_ipin_4.sky130_fd_sc_hd__dfxtp_1_3_ mux_top_ipin_4.mux_l3_in_1_/S mux_top_ipin_4.mux_l4_in_0_/S
+ clkbuf_3_1_0_prog_clk/X VGND VGND VPWR VPWR sky130_fd_sc_hd__dfxtp_1
XFILLER_8_167 VGND VGND VPWR VPWR sky130_fd_sc_hd__fill_1
XFILLER_12_29 VGND VGND VPWR VPWR sky130_fd_sc_hd__fill_2
XFILLER_12_18 VGND VGND VPWR VPWR sky130_fd_sc_hd__fill_2
Xmem_top_ipin_14.sky130_fd_sc_hd__dfxtp_1_3_ mux_top_ipin_14.mux_l3_in_1_/S mux_top_ipin_14.mux_l4_in_0_/S
+ clkbuf_3_7_0_prog_clk/X VGND VGND VPWR VPWR sky130_fd_sc_hd__dfxtp_1
XFILLER_2_118 VGND VGND VPWR VPWR sky130_fd_sc_hd__fill_2
Xmux_top_ipin_2.mux_l1_in_0_ chanx_right_in[1] chanx_left_in[1] mux_top_ipin_2.mux_l1_in_0_/S
+ mux_top_ipin_2.mux_l1_in_0_/X VGND VGND VPWR VPWR sky130_fd_sc_hd__mux2_1
Xmem_top_ipin_1.sky130_fd_sc_hd__dfxtp_1_2_ mux_top_ipin_1.mux_l2_in_1_/S mux_top_ipin_1.mux_l3_in_0_/S
+ clkbuf_3_0_0_prog_clk/X VGND VGND VPWR VPWR sky130_fd_sc_hd__dfxtp_1
XFILLER_1_162 VGND VGND VPWR VPWR sky130_fd_sc_hd__decap_6
X_41_ chanx_right_in[12] chanx_left_out[12] VGND VGND VPWR VPWR sky130_fd_sc_hd__buf_2
Xmem_top_ipin_11.sky130_fd_sc_hd__dfxtp_1_2_ mux_top_ipin_11.mux_l2_in_1_/S mux_top_ipin_11.mux_l3_in_0_/S
+ clkbuf_3_5_0_prog_clk/X VGND VGND VPWR VPWR sky130_fd_sc_hd__dfxtp_1
XFILLER_20_29 VGND VGND VPWR VPWR sky130_fd_sc_hd__fill_2
X_24_ _24_/HI _24_/LO VGND VGND VPWR VPWR sky130_fd_sc_hd__conb_1
XFILLER_10_40 VGND VGND VPWR VPWR sky130_fd_sc_hd__fill_1
Xmem_top_ipin_7.sky130_fd_sc_hd__dfxtp_1_3_ mux_top_ipin_7.mux_l3_in_1_/S mux_top_ipin_7.mux_l4_in_0_/S
+ clkbuf_3_3_0_prog_clk/X VGND VGND VPWR VPWR sky130_fd_sc_hd__dfxtp_1
Xmux_top_ipin_14.mux_l2_in_0_ chanx_left_in[3] mux_top_ipin_14.mux_l1_in_0_/X mux_top_ipin_14.mux_l2_in_0_/S
+ mux_top_ipin_14.mux_l2_in_0_/X VGND VGND VPWR VPWR sky130_fd_sc_hd__mux2_1
Xmux_top_ipin_0.sky130_fd_sc_hd__buf_4_0_ mux_top_ipin_0.mux_l4_in_0_/X bottom_grid_pin_0_
+ VGND VGND VPWR VPWR sky130_fd_sc_hd__buf_4
XPHY_101 VGND VPWR sky130_fd_sc_hd__tapvpwrvgnd_1
Xmux_top_ipin_7.mux_l1_in_0_ chanx_right_in[0] chanx_left_in[0] mux_top_ipin_7.mux_l1_in_1_/S
+ mux_top_ipin_7.mux_l1_in_0_/X VGND VGND VPWR VPWR sky130_fd_sc_hd__mux2_1
XPHY_3 VGND VGND VPWR VPWR sky130_fd_sc_hd__decap_3
XFILLER_7_74 VGND VGND VPWR VPWR sky130_fd_sc_hd__fill_2
XFILLER_21_164 VGND VGND VPWR VPWR sky130_fd_sc_hd__decap_4
XFILLER_21_120 VGND VGND VPWR VPWR sky130_fd_sc_hd__fill_2
Xmem_top_ipin_4.sky130_fd_sc_hd__dfxtp_1_2_ mux_top_ipin_4.mux_l2_in_3_/S mux_top_ipin_4.mux_l3_in_1_/S
+ clkbuf_3_1_0_prog_clk/X VGND VGND VPWR VPWR sky130_fd_sc_hd__dfxtp_1
XFILLER_8_135 VGND VGND VPWR VPWR sky130_fd_sc_hd__fill_1
Xmem_top_ipin_14.sky130_fd_sc_hd__dfxtp_1_2_ mux_top_ipin_14.mux_l2_in_0_/S mux_top_ipin_14.mux_l3_in_1_/S
+ clkbuf_3_6_0_prog_clk/X VGND VGND VPWR VPWR sky130_fd_sc_hd__dfxtp_1
XFILLER_4_20 VGND VGND VPWR VPWR sky130_fd_sc_hd__decap_3
Xmem_top_ipin_1.sky130_fd_sc_hd__dfxtp_1_1_ mux_top_ipin_1.mux_l1_in_0_/S mux_top_ipin_1.mux_l2_in_1_/S
+ clkbuf_3_2_0_prog_clk/X VGND VGND VPWR VPWR sky130_fd_sc_hd__dfxtp_1
X_40_ chanx_right_in[13] chanx_left_out[13] VGND VGND VPWR VPWR sky130_fd_sc_hd__buf_2
XFILLER_18_29 VGND VGND VPWR VPWR sky130_fd_sc_hd__fill_2
XFILLER_18_18 VGND VGND VPWR VPWR sky130_fd_sc_hd__fill_2
XFILLER_1_98 VGND VGND VPWR VPWR sky130_fd_sc_hd__fill_2
XFILLER_1_87 VGND VGND VPWR VPWR sky130_fd_sc_hd__fill_2
XFILLER_1_76 VGND VGND VPWR VPWR sky130_fd_sc_hd__fill_2
XFILLER_1_65 VGND VGND VPWR VPWR sky130_fd_sc_hd__fill_2
XFILLER_1_43 VGND VGND VPWR VPWR sky130_fd_sc_hd__decap_4
XFILLER_1_32 VGND VGND VPWR VPWR sky130_fd_sc_hd__fill_2
XFILLER_1_21 VGND VGND VPWR VPWR sky130_fd_sc_hd__fill_2
XFILLER_1_10 VGND VGND VPWR VPWR sky130_fd_sc_hd__fill_2
Xmem_top_ipin_11.sky130_fd_sc_hd__dfxtp_1_1_ mux_top_ipin_11.mux_l1_in_1_/S mux_top_ipin_11.mux_l2_in_1_/S
+ clkbuf_3_5_0_prog_clk/X VGND VGND VPWR VPWR sky130_fd_sc_hd__dfxtp_1
X_23_ _23_/HI _23_/LO VGND VGND VPWR VPWR sky130_fd_sc_hd__conb_1
Xmem_top_ipin_7.sky130_fd_sc_hd__dfxtp_1_2_ mux_top_ipin_7.mux_l2_in_0_/S mux_top_ipin_7.mux_l3_in_1_/S
+ clkbuf_3_3_0_prog_clk/X VGND VGND VPWR VPWR sky130_fd_sc_hd__dfxtp_1
XFILLER_15_19 VGND VGND VPWR VPWR sky130_fd_sc_hd__fill_2
XPHY_102 VGND VPWR sky130_fd_sc_hd__tapvpwrvgnd_1
XFILLER_16_107 VGND VGND VPWR VPWR sky130_fd_sc_hd__fill_2
XPHY_4 VGND VGND VPWR VPWR sky130_fd_sc_hd__decap_3
XFILLER_7_53 VGND VGND VPWR VPWR sky130_fd_sc_hd__fill_2
XFILLER_7_97 VGND VGND VPWR VPWR sky130_fd_sc_hd__fill_2
XFILLER_21_154 VGND VGND VPWR VPWR sky130_fd_sc_hd__fill_1
Xmem_top_ipin_4.sky130_fd_sc_hd__dfxtp_1_1_ mux_top_ipin_4.mux_l1_in_1_/S mux_top_ipin_4.mux_l2_in_3_/S
+ clkbuf_3_1_0_prog_clk/X VGND VGND VPWR VPWR sky130_fd_sc_hd__dfxtp_1
Xmux_top_ipin_14.mux_l1_in_0_ chanx_right_in[1] chanx_left_in[1] mux_top_ipin_14.mux_l1_in_0_/S
+ mux_top_ipin_14.mux_l1_in_0_/X VGND VGND VPWR VPWR sky130_fd_sc_hd__mux2_1
XFILLER_16_51 VGND VGND VPWR VPWR sky130_fd_sc_hd__fill_2
XFILLER_5_139 VGND VGND VPWR VPWR sky130_fd_sc_hd__decap_4
Xmem_top_ipin_14.sky130_fd_sc_hd__dfxtp_1_1_ mux_top_ipin_14.mux_l1_in_0_/S mux_top_ipin_14.mux_l2_in_0_/S
+ clkbuf_3_7_0_prog_clk/X VGND VGND VPWR VPWR sky130_fd_sc_hd__dfxtp_1
Xclkbuf_3_1_0_prog_clk clkbuf_3_1_0_prog_clk/A clkbuf_3_1_0_prog_clk/X VGND VGND VPWR
+ VPWR sky130_fd_sc_hd__clkbuf_1
XFILLER_13_96 VGND VGND VPWR VPWR sky130_fd_sc_hd__fill_2
XFILLER_13_85 VGND VGND VPWR VPWR sky130_fd_sc_hd__fill_2
Xmem_top_ipin_1.sky130_fd_sc_hd__dfxtp_1_0_ mux_top_ipin_0.mux_l4_in_0_/S mux_top_ipin_1.mux_l1_in_0_/S
+ clkbuf_3_2_0_prog_clk/X VGND VGND VPWR VPWR sky130_fd_sc_hd__dfxtp_1
XFILLER_1_120 VGND VGND VPWR VPWR sky130_fd_sc_hd__fill_2
X_22_ _22_/HI _22_/LO VGND VGND VPWR VPWR sky130_fd_sc_hd__conb_1
Xmem_top_ipin_11.sky130_fd_sc_hd__dfxtp_1_0_ mux_top_ipin_10.mux_l4_in_0_/S mux_top_ipin_11.mux_l1_in_1_/S
+ clkbuf_3_5_0_prog_clk/X VGND VGND VPWR VPWR sky130_fd_sc_hd__dfxtp_1
XFILLER_19_149 VGND VGND VPWR VPWR sky130_fd_sc_hd__fill_1
XFILLER_19_127 VGND VGND VPWR VPWR sky130_fd_sc_hd__fill_2
XFILLER_19_84 VGND VGND VPWR VPWR sky130_fd_sc_hd__decap_4
XFILLER_19_62 VGND VGND VPWR VPWR sky130_fd_sc_hd__decap_6
Xmem_top_ipin_7.sky130_fd_sc_hd__dfxtp_1_1_ mux_top_ipin_7.mux_l1_in_1_/S mux_top_ipin_7.mux_l2_in_0_/S
+ clkbuf_3_6_0_prog_clk/X VGND VGND VPWR VPWR sky130_fd_sc_hd__dfxtp_1
XFILLER_18_3 VGND VGND VPWR VPWR sky130_fd_sc_hd__fill_1
XPHY_103 VGND VPWR sky130_fd_sc_hd__tapvpwrvgnd_1
XFILLER_21_30 VGND VGND VPWR VPWR sky130_fd_sc_hd__decap_3
XPHY_5 VGND VGND VPWR VPWR sky130_fd_sc_hd__decap_3
XFILLER_16_96 VGND VGND VPWR VPWR sky130_fd_sc_hd__fill_2
XFILLER_12_111 VGND VGND VPWR VPWR sky130_fd_sc_hd__fill_2
XFILLER_12_100 VGND VGND VPWR VPWR sky130_fd_sc_hd__fill_2
Xmem_top_ipin_4.sky130_fd_sc_hd__dfxtp_1_0_ mux_top_ipin_3.mux_l4_in_0_/S mux_top_ipin_4.mux_l1_in_1_/S
+ clkbuf_3_1_0_prog_clk/X VGND VGND VPWR VPWR sky130_fd_sc_hd__dfxtp_1
Xmem_top_ipin_14.sky130_fd_sc_hd__dfxtp_1_0_ mux_top_ipin_13.mux_l4_in_0_/S mux_top_ipin_14.mux_l1_in_0_/S
+ clkbuf_3_7_0_prog_clk/X VGND VGND VPWR VPWR sky130_fd_sc_hd__dfxtp_1
XFILLER_4_66 VGND VGND VPWR VPWR sky130_fd_sc_hd__fill_2
XFILLER_4_140 VGND VGND VPWR VPWR sky130_fd_sc_hd__fill_2
XFILLER_4_151 VGND VGND VPWR VPWR sky130_fd_sc_hd__fill_2
XFILLER_13_20 VGND VGND VPWR VPWR sky130_fd_sc_hd__fill_2
Xmux_top_ipin_3.mux_l2_in_3_ _31_/HI chanx_right_in[14] mux_top_ipin_3.mux_l2_in_3_/S
+ mux_top_ipin_3.mux_l2_in_3_/X VGND VGND VPWR VPWR sky130_fd_sc_hd__mux2_1
XFILLER_1_154 VGND VGND VPWR VPWR sky130_fd_sc_hd__fill_2
XFILLER_1_132 VGND VGND VPWR VPWR sky130_fd_sc_hd__decap_4
X_21_ _21_/HI _21_/LO VGND VGND VPWR VPWR sky130_fd_sc_hd__conb_1
XFILLER_1_56 VGND VGND VPWR VPWR sky130_fd_sc_hd__decap_4
Xmem_top_ipin_7.sky130_fd_sc_hd__dfxtp_1_0_ mux_top_ipin_6.mux_l4_in_0_/S mux_top_ipin_7.mux_l1_in_1_/S
+ clkbuf_3_3_0_prog_clk/X VGND VGND VPWR VPWR sky130_fd_sc_hd__dfxtp_1
XFILLER_10_87 VGND VGND VPWR VPWR sky130_fd_sc_hd__fill_2
Xmux_top_ipin_3.mux_l4_in_0_ mux_top_ipin_3.mux_l3_in_1_/X mux_top_ipin_3.mux_l3_in_0_/X
+ mux_top_ipin_3.mux_l4_in_0_/S mux_top_ipin_3.mux_l4_in_0_/X VGND VGND VPWR VPWR
+ sky130_fd_sc_hd__mux2_1
XPHY_104 VGND VPWR sky130_fd_sc_hd__tapvpwrvgnd_1
XFILLER_21_53 VGND VGND VPWR VPWR sky130_fd_sc_hd__fill_2
XFILLER_21_42 VGND VGND VPWR VPWR sky130_fd_sc_hd__fill_2
XPHY_6 VGND VGND VPWR VPWR sky130_fd_sc_hd__decap_3
Xmux_top_ipin_8.mux_l2_in_3_ _19_/HI chanx_right_in[19] mux_top_ipin_8.mux_l2_in_0_/S
+ mux_top_ipin_8.mux_l2_in_3_/X VGND VGND VPWR VPWR sky130_fd_sc_hd__mux2_1
XFILLER_12_167 VGND VGND VPWR VPWR sky130_fd_sc_hd__fill_1
XFILLER_12_134 VGND VGND VPWR VPWR sky130_fd_sc_hd__fill_1
Xmux_top_ipin_3.mux_l3_in_1_ mux_top_ipin_3.mux_l2_in_3_/X mux_top_ipin_3.mux_l2_in_2_/X
+ mux_top_ipin_3.mux_l3_in_1_/S mux_top_ipin_3.mux_l3_in_1_/X VGND VGND VPWR VPWR
+ sky130_fd_sc_hd__mux2_1
XFILLER_5_108 VGND VGND VPWR VPWR sky130_fd_sc_hd__fill_2
XFILLER_5_119 VGND VGND VPWR VPWR sky130_fd_sc_hd__decap_3
XFILLER_4_163 VGND VGND VPWR VPWR sky130_fd_sc_hd__decap_4
Xmux_top_ipin_3.mux_l2_in_2_ chanx_left_in[14] chanx_right_in[8] mux_top_ipin_3.mux_l2_in_3_/S
+ mux_top_ipin_3.mux_l2_in_2_/X VGND VGND VPWR VPWR sky130_fd_sc_hd__mux2_1
Xmux_top_ipin_8.mux_l4_in_0_ mux_top_ipin_8.mux_l3_in_1_/X mux_top_ipin_8.mux_l3_in_0_/X
+ mux_top_ipin_8.mux_l4_in_0_/S mux_top_ipin_8.mux_l4_in_0_/X VGND VGND VPWR VPWR
+ sky130_fd_sc_hd__mux2_1
XFILLER_8_3 VGND VGND VPWR VPWR sky130_fd_sc_hd__fill_1
Xmux_top_ipin_10.mux_l2_in_3_ _24_/HI chanx_right_in[15] mux_top_ipin_10.mux_l2_in_2_/S
+ mux_top_ipin_10.mux_l2_in_3_/X VGND VGND VPWR VPWR sky130_fd_sc_hd__mux2_1
X_20_ _20_/HI _20_/LO VGND VGND VPWR VPWR sky130_fd_sc_hd__conb_1
Xclkbuf_0_prog_clk prog_clk clkbuf_0_prog_clk/X VGND VGND VPWR VPWR sky130_fd_sc_hd__clkbuf_16
Xmux_top_ipin_8.mux_l3_in_1_ mux_top_ipin_8.mux_l2_in_3_/X mux_top_ipin_8.mux_l2_in_2_/X
+ mux_top_ipin_8.mux_l3_in_0_/S mux_top_ipin_8.mux_l3_in_1_/X VGND VGND VPWR VPWR
+ sky130_fd_sc_hd__mux2_1
XFILLER_10_77 VGND VGND VPWR VPWR sky130_fd_sc_hd__fill_1
XFILLER_18_151 VGND VGND VPWR VPWR sky130_fd_sc_hd__fill_2
XFILLER_18_140 VGND VGND VPWR VPWR sky130_fd_sc_hd__fill_2
XPHY_105 VGND VPWR sky130_fd_sc_hd__tapvpwrvgnd_1
XFILLER_15_121 VGND VGND VPWR VPWR sky130_fd_sc_hd__fill_1
XPHY_7 VGND VGND VPWR VPWR sky130_fd_sc_hd__decap_3
XFILLER_21_102 VGND VGND VPWR VPWR sky130_fd_sc_hd__decap_4
Xmux_top_ipin_3.sky130_fd_sc_hd__buf_4_0_ mux_top_ipin_3.mux_l4_in_0_/X bottom_grid_pin_3_
+ VGND VGND VPWR VPWR sky130_fd_sc_hd__buf_4
Xmux_top_ipin_10.mux_l4_in_0_ mux_top_ipin_10.mux_l3_in_1_/X mux_top_ipin_10.mux_l3_in_0_/X
+ mux_top_ipin_10.mux_l4_in_0_/S mux_top_ipin_10.mux_l4_in_0_/X VGND VGND VPWR VPWR
+ sky130_fd_sc_hd__mux2_1
Xmux_top_ipin_8.mux_l2_in_2_ chanx_left_in[19] chanx_right_in[13] mux_top_ipin_8.mux_l2_in_0_/S
+ mux_top_ipin_8.mux_l2_in_2_/X VGND VGND VPWR VPWR sky130_fd_sc_hd__mux2_1
Xmux_top_ipin_3.mux_l3_in_0_ mux_top_ipin_3.mux_l2_in_1_/X mux_top_ipin_3.mux_l2_in_0_/X
+ mux_top_ipin_3.mux_l3_in_1_/S mux_top_ipin_3.mux_l3_in_0_/X VGND VGND VPWR VPWR
+ sky130_fd_sc_hd__mux2_1
Xmux_top_ipin_15.mux_l2_in_3_ _29_/HI chanx_right_in[16] mux_top_ipin_15.mux_l2_in_3_/S
+ mux_top_ipin_15.mux_l2_in_3_/X VGND VGND VPWR VPWR sky130_fd_sc_hd__mux2_1
Xmux_top_ipin_10.mux_l3_in_1_ mux_top_ipin_10.mux_l2_in_3_/X mux_top_ipin_10.mux_l2_in_2_/X
+ mux_top_ipin_10.mux_l3_in_1_/S mux_top_ipin_10.mux_l3_in_1_/X VGND VGND VPWR VPWR
+ sky130_fd_sc_hd__mux2_1
Xmux_top_ipin_3.mux_l2_in_1_ chanx_left_in[8] mux_top_ipin_3.mux_l1_in_2_/X mux_top_ipin_3.mux_l2_in_3_/S
+ mux_top_ipin_3.mux_l2_in_1_/X VGND VGND VPWR VPWR sky130_fd_sc_hd__mux2_1
XFILLER_13_44 VGND VGND VPWR VPWR sky130_fd_sc_hd__decap_6
Xclkbuf_3_0_0_prog_clk clkbuf_3_1_0_prog_clk/A clkbuf_3_0_0_prog_clk/X VGND VGND VPWR
+ VPWR sky130_fd_sc_hd__clkbuf_1
Xmux_top_ipin_10.mux_l2_in_2_ chanx_left_in[15] chanx_right_in[7] mux_top_ipin_10.mux_l2_in_2_/S
+ mux_top_ipin_10.mux_l2_in_2_/X VGND VGND VPWR VPWR sky130_fd_sc_hd__mux2_1
Xmux_top_ipin_15.mux_l4_in_0_ mux_top_ipin_15.mux_l3_in_1_/X mux_top_ipin_15.mux_l3_in_0_/X
+ ccff_tail mux_top_ipin_15.mux_l4_in_0_/X VGND VGND VPWR VPWR sky130_fd_sc_hd__mux2_1
Xmux_top_ipin_3.mux_l1_in_2_ chanx_right_in[4] chanx_left_in[4] mux_top_ipin_3.mux_l1_in_2_/S
+ mux_top_ipin_3.mux_l1_in_2_/X VGND VGND VPWR VPWR sky130_fd_sc_hd__mux2_1
Xmux_top_ipin_8.mux_l3_in_0_ mux_top_ipin_8.mux_l2_in_1_/X mux_top_ipin_8.mux_l2_in_0_/X
+ mux_top_ipin_8.mux_l3_in_0_/S mux_top_ipin_8.mux_l3_in_0_/X VGND VGND VPWR VPWR
+ sky130_fd_sc_hd__mux2_1
XFILLER_18_163 VGND VGND VPWR VPWR sky130_fd_sc_hd__decap_4