* NGSPICE file created from cbx_1__1_.ext - technology: sky130A

* Black-box entry subcircuit for sky130_fd_sc_hd__decap_3 abstract view
.subckt sky130_fd_sc_hd__decap_3 VGND VNB VPB VPWR
.ends

* Black-box entry subcircuit for sky130_fd_sc_hd__fill_2 abstract view
.subckt sky130_fd_sc_hd__fill_2 VGND VNB VPB VPWR
.ends

* Black-box entry subcircuit for sky130_fd_sc_hd__decap_12 abstract view
.subckt sky130_fd_sc_hd__decap_12 VGND VNB VPB VPWR
.ends

* Black-box entry subcircuit for sky130_fd_sc_hd__mux2_1 abstract view
.subckt sky130_fd_sc_hd__mux2_1 A0 A1 S X VGND VNB VPB VPWR
.ends

* Black-box entry subcircuit for sky130_fd_sc_hd__diode_2 abstract view
.subckt sky130_fd_sc_hd__diode_2 DIODE VGND VNB VPB VPWR
.ends

* Black-box entry subcircuit for sky130_fd_sc_hd__buf_2 abstract view
.subckt sky130_fd_sc_hd__buf_2 A X VGND VNB VPB VPWR
.ends

* Black-box entry subcircuit for sky130_fd_sc_hd__dfxbp_1 abstract view
.subckt sky130_fd_sc_hd__dfxbp_1 D Q Q_N CLK VGND VNB VPB VPWR
.ends

* Black-box entry subcircuit for sky130_fd_sc_hd__decap_4 abstract view
.subckt sky130_fd_sc_hd__decap_4 VGND VNB VPB VPWR
.ends

* Black-box entry subcircuit for sky130_fd_sc_hd__fill_1 abstract view
.subckt sky130_fd_sc_hd__fill_1 VGND VNB VPB VPWR
.ends

* Black-box entry subcircuit for sky130_fd_sc_hd__decap_6 abstract view
.subckt sky130_fd_sc_hd__decap_6 VGND VNB VPB VPWR
.ends

* Black-box entry subcircuit for sky130_fd_sc_hd__tapvpwrvgnd_1 abstract view
.subckt sky130_fd_sc_hd__tapvpwrvgnd_1 VGND VPWR
.ends

* Black-box entry subcircuit for sky130_fd_sc_hd__decap_8 abstract view
.subckt sky130_fd_sc_hd__decap_8 VGND VNB VPB VPWR
.ends

* Black-box entry subcircuit for sky130_fd_sc_hd__buf_1 abstract view
.subckt sky130_fd_sc_hd__buf_1 A X VGND VNB VPB VPWR
.ends

* Black-box entry subcircuit for sky130_fd_sc_hd__conb_1 abstract view
.subckt sky130_fd_sc_hd__conb_1 HI LO VGND VNB VPB VPWR
.ends

.subckt cbx_1__1_ ccff_head ccff_tail chanx_left_in[0] chanx_left_in[10] chanx_left_in[11]
+ chanx_left_in[12] chanx_left_in[13] chanx_left_in[14] chanx_left_in[15] chanx_left_in[16]
+ chanx_left_in[17] chanx_left_in[18] chanx_left_in[19] chanx_left_in[1] chanx_left_in[2]
+ chanx_left_in[3] chanx_left_in[4] chanx_left_in[5] chanx_left_in[6] chanx_left_in[7]
+ chanx_left_in[8] chanx_left_in[9] chanx_left_out[0] chanx_left_out[10] chanx_left_out[11]
+ chanx_left_out[12] chanx_left_out[13] chanx_left_out[14] chanx_left_out[15] chanx_left_out[16]
+ chanx_left_out[17] chanx_left_out[18] chanx_left_out[19] chanx_left_out[1] chanx_left_out[2]
+ chanx_left_out[3] chanx_left_out[4] chanx_left_out[5] chanx_left_out[6] chanx_left_out[7]
+ chanx_left_out[8] chanx_left_out[9] chanx_right_in[0] chanx_right_in[10] chanx_right_in[11]
+ chanx_right_in[12] chanx_right_in[13] chanx_right_in[14] chanx_right_in[15] chanx_right_in[16]
+ chanx_right_in[17] chanx_right_in[18] chanx_right_in[19] chanx_right_in[1] chanx_right_in[2]
+ chanx_right_in[3] chanx_right_in[4] chanx_right_in[5] chanx_right_in[6] chanx_right_in[7]
+ chanx_right_in[8] chanx_right_in[9] chanx_right_out[0] chanx_right_out[10] chanx_right_out[11]
+ chanx_right_out[12] chanx_right_out[13] chanx_right_out[14] chanx_right_out[15]
+ chanx_right_out[16] chanx_right_out[17] chanx_right_out[18] chanx_right_out[19]
+ chanx_right_out[1] chanx_right_out[2] chanx_right_out[3] chanx_right_out[4] chanx_right_out[5]
+ chanx_right_out[6] chanx_right_out[7] chanx_right_out[8] chanx_right_out[9] prog_clk
+ top_grid_pin_16_ top_grid_pin_17_ top_grid_pin_18_ top_grid_pin_19_ top_grid_pin_20_
+ top_grid_pin_21_ top_grid_pin_22_ top_grid_pin_23_ top_grid_pin_24_ top_grid_pin_25_
+ top_grid_pin_26_ top_grid_pin_27_ top_grid_pin_28_ top_grid_pin_29_ top_grid_pin_30_
+ top_grid_pin_31_ VPWR VGND
XFILLER_22_144 VGND VGND VPWR VPWR sky130_fd_sc_hd__decap_3
XFILLER_7_7 VGND VGND VPWR VPWR sky130_fd_sc_hd__fill_2
XFILLER_26_41 VGND VGND VPWR VPWR sky130_fd_sc_hd__decap_3
XFILLER_9_159 VGND VGND VPWR VPWR sky130_fd_sc_hd__decap_12
Xmux_bottom_ipin_12.mux_l2_in_3_ _23_/HI chanx_right_in[16] mux_bottom_ipin_12.mux_l2_in_2_/S
+ mux_bottom_ipin_12.mux_l2_in_3_/X VGND VGND VPWR VPWR sky130_fd_sc_hd__mux2_1
XFILLER_35_280 VGND VGND VPWR VPWR sky130_fd_sc_hd__decap_12
Xmux_bottom_ipin_7.mux_l2_in_1_ chanx_left_in[11] chanx_right_in[3] mux_bottom_ipin_7.mux_l2_in_1_/S
+ mux_bottom_ipin_7.mux_l2_in_1_/X VGND VGND VPWR VPWR sky130_fd_sc_hd__mux2_1
XFILLER_6_129 VGND VGND VPWR VPWR sky130_fd_sc_hd__decap_12
XFILLER_12_10 VGND VGND VPWR VPWR sky130_fd_sc_hd__fill_2
XFILLER_12_32 VGND VGND VPWR VPWR sky130_fd_sc_hd__decap_3
XANTENNA_mux_bottom_ipin_9.mux_l2_in_3__A1 chanx_right_in[19] VGND VGND VPWR VPWR
+ sky130_fd_sc_hd__diode_2
XFILLER_5_184 VGND VGND VPWR VPWR sky130_fd_sc_hd__decap_12
X_66_ chanx_left_in[5] chanx_right_out[5] VGND VGND VPWR VPWR sky130_fd_sc_hd__buf_2
XFILLER_17_291 VGND VGND VPWR VPWR sky130_fd_sc_hd__fill_2
XFILLER_32_250 VGND VGND VPWR VPWR sky130_fd_sc_hd__fill_2
XANTENNA_mux_bottom_ipin_4.mux_l1_in_0__S mux_bottom_ipin_4.mux_l1_in_0_/S VGND VGND
+ VPWR VPWR sky130_fd_sc_hd__diode_2
XANTENNA_mux_bottom_ipin_8.mux_l1_in_0__A0 chanx_right_in[0] VGND VGND VPWR VPWR sky130_fd_sc_hd__diode_2
XFILLER_23_53 VGND VGND VPWR VPWR sky130_fd_sc_hd__fill_2
XFILLER_23_97 VGND VGND VPWR VPWR sky130_fd_sc_hd__fill_2
XFILLER_2_154 VGND VGND VPWR VPWR sky130_fd_sc_hd__decap_12
Xmem_bottom_ipin_12.sky130_fd_sc_hd__dfxbp_1_3_ mux_bottom_ipin_12.mux_l3_in_1_/S
+ mux_bottom_ipin_12.mux_l4_in_0_/S mem_bottom_ipin_12.sky130_fd_sc_hd__dfxbp_1_3_/Q_N
+ prog_clk VGND VGND VPWR VPWR sky130_fd_sc_hd__dfxbp_1
XFILLER_9_55 VGND VGND VPWR VPWR sky130_fd_sc_hd__decap_4
XFILLER_9_11 VGND VGND VPWR VPWR sky130_fd_sc_hd__fill_2
XFILLER_9_66 VGND VGND VPWR VPWR sky130_fd_sc_hd__fill_2
X_49_ chanx_right_in[2] chanx_left_out[2] VGND VGND VPWR VPWR sky130_fd_sc_hd__buf_2
XANTENNA_mem_bottom_ipin_15.sky130_fd_sc_hd__dfxbp_1_3__D mux_bottom_ipin_15.mux_l3_in_1_/S
+ VGND VGND VPWR VPWR sky130_fd_sc_hd__diode_2
XFILLER_20_297 VGND VGND VPWR VPWR sky130_fd_sc_hd__fill_2
XANTENNA_mux_bottom_ipin_2.sky130_fd_sc_hd__buf_4_0__A mux_bottom_ipin_2.mux_l4_in_0_/X
+ VGND VGND VPWR VPWR sky130_fd_sc_hd__diode_2
Xmux_bottom_ipin_12.mux_l4_in_0_ mux_bottom_ipin_12.mux_l3_in_1_/X mux_bottom_ipin_12.mux_l3_in_0_/X
+ mux_bottom_ipin_12.mux_l4_in_0_/S mux_bottom_ipin_12.mux_l4_in_0_/X VGND VGND VPWR
+ VPWR sky130_fd_sc_hd__mux2_1
Xmux_bottom_ipin_2.mux_l2_in_0_ chanx_left_in[2] mux_bottom_ipin_2.mux_l1_in_0_/X
+ mux_bottom_ipin_2.mux_l2_in_3_/S mux_bottom_ipin_2.mux_l2_in_0_/X VGND VGND VPWR
+ VPWR sky130_fd_sc_hd__mux2_1
XFILLER_18_75 VGND VGND VPWR VPWR sky130_fd_sc_hd__fill_2
XFILLER_11_220 VGND VGND VPWR VPWR sky130_fd_sc_hd__decap_12
XFILLER_7_279 VGND VGND VPWR VPWR sky130_fd_sc_hd__fill_2
XFILLER_7_257 VGND VGND VPWR VPWR sky130_fd_sc_hd__decap_12
XANTENNA_mux_bottom_ipin_13.mux_l2_in_2__S mux_bottom_ipin_13.mux_l2_in_3_/S VGND
+ VGND VPWR VPWR sky130_fd_sc_hd__diode_2
XANTENNA_mux_bottom_ipin_15.mux_l2_in_1__A1 chanx_right_in[3] VGND VGND VPWR VPWR
+ sky130_fd_sc_hd__diode_2
XANTENNA_mux_bottom_ipin_3.mux_l2_in_0__S mux_bottom_ipin_3.mux_l2_in_0_/S VGND VGND
+ VPWR VPWR sky130_fd_sc_hd__diode_2
XFILLER_4_227 VGND VGND VPWR VPWR sky130_fd_sc_hd__decap_12
XFILLER_20_10 VGND VGND VPWR VPWR sky130_fd_sc_hd__fill_1
XFILLER_20_32 VGND VGND VPWR VPWR sky130_fd_sc_hd__fill_2
XFILLER_20_54 VGND VGND VPWR VPWR sky130_fd_sc_hd__fill_2
XFILLER_29_30 VGND VGND VPWR VPWR sky130_fd_sc_hd__fill_2
XFILLER_6_23 VGND VGND VPWR VPWR sky130_fd_sc_hd__decap_4
XFILLER_6_56 VGND VGND VPWR VPWR sky130_fd_sc_hd__decap_12
XFILLER_3_293 VGND VGND VPWR VPWR sky130_fd_sc_hd__decap_6
XFILLER_13_3 VGND VGND VPWR VPWR sky130_fd_sc_hd__decap_3
XFILLER_19_172 VGND VGND VPWR VPWR sky130_fd_sc_hd__fill_2
Xmux_bottom_ipin_12.mux_l3_in_1_ mux_bottom_ipin_12.mux_l2_in_3_/X mux_bottom_ipin_12.mux_l2_in_2_/X
+ mux_bottom_ipin_12.mux_l3_in_1_/S mux_bottom_ipin_12.mux_l3_in_1_/X VGND VGND VPWR
+ VPWR sky130_fd_sc_hd__mux2_1
XANTENNA_mux_bottom_ipin_9.mux_l1_in_1__S mux_bottom_ipin_9.mux_l1_in_0_/S VGND VGND
+ VPWR VPWR sky130_fd_sc_hd__diode_2
XANTENNA_mux_bottom_ipin_6.mux_l2_in_1__A0 chanx_left_in[10] VGND VGND VPWR VPWR sky130_fd_sc_hd__diode_2
XFILLER_1_208 VGND VGND VPWR VPWR sky130_fd_sc_hd__decap_12
XANTENNA_mux_bottom_ipin_13.mux_l2_in_3__A1 chanx_right_in[17] VGND VGND VPWR VPWR
+ sky130_fd_sc_hd__diode_2
XFILLER_0_230 VGND VGND VPWR VPWR sky130_fd_sc_hd__decap_12
XFILLER_31_145 VGND VGND VPWR VPWR sky130_fd_sc_hd__fill_2
XFILLER_31_101 VGND VGND VPWR VPWR sky130_fd_sc_hd__fill_2
XPHY_170 VGND VPWR sky130_fd_sc_hd__tapvpwrvgnd_1
XPHY_192 VGND VPWR sky130_fd_sc_hd__tapvpwrvgnd_1
XANTENNA_mux_bottom_ipin_15.mux_l3_in_0__A1 mux_bottom_ipin_15.mux_l2_in_0_/X VGND
+ VGND VPWR VPWR sky130_fd_sc_hd__diode_2
XANTENNA_mux_bottom_ipin_12.mux_l1_in_0__A0 chanx_right_in[0] VGND VGND VPWR VPWR
+ sky130_fd_sc_hd__diode_2
XPHY_181 VGND VPWR sky130_fd_sc_hd__tapvpwrvgnd_1
XFILLER_22_189 VGND VGND VPWR VPWR sky130_fd_sc_hd__fill_2
XANTENNA_mux_bottom_ipin_4.mux_l2_in_3__A0 _29_/HI VGND VGND VPWR VPWR sky130_fd_sc_hd__diode_2
XANTENNA_mux_bottom_ipin_2.mux_l3_in_0__S mux_bottom_ipin_2.mux_l3_in_1_/S VGND VGND
+ VPWR VPWR sky130_fd_sc_hd__diode_2
XFILLER_26_97 VGND VGND VPWR VPWR sky130_fd_sc_hd__decap_4
XFILLER_13_101 VGND VGND VPWR VPWR sky130_fd_sc_hd__decap_12
XFILLER_13_123 VGND VGND VPWR VPWR sky130_fd_sc_hd__decap_12
Xmux_bottom_ipin_12.mux_l2_in_2_ chanx_left_in[16] chanx_right_in[12] mux_bottom_ipin_12.mux_l2_in_2_/S
+ mux_bottom_ipin_12.mux_l2_in_2_/X VGND VGND VPWR VPWR sky130_fd_sc_hd__mux2_1
XANTENNA_mux_bottom_ipin_6.mux_l3_in_0__A0 mux_bottom_ipin_6.mux_l2_in_1_/X VGND VGND
+ VPWR VPWR sky130_fd_sc_hd__diode_2
Xmem_bottom_ipin_15.sky130_fd_sc_hd__dfxbp_1_3_ mux_bottom_ipin_15.mux_l3_in_1_/S
+ ccff_tail mem_bottom_ipin_15.sky130_fd_sc_hd__dfxbp_1_3_/Q_N prog_clk VGND VGND
+ VPWR VPWR sky130_fd_sc_hd__dfxbp_1
Xmux_bottom_ipin_7.mux_l2_in_0_ chanx_left_in[3] mux_bottom_ipin_7.mux_l1_in_0_/X
+ mux_bottom_ipin_7.mux_l2_in_1_/S mux_bottom_ipin_7.mux_l2_in_0_/X VGND VGND VPWR
+ VPWR sky130_fd_sc_hd__mux2_1
XANTENNA_mux_bottom_ipin_8.mux_l2_in_1__S mux_bottom_ipin_8.mux_l2_in_2_/S VGND VGND
+ VPWR VPWR sky130_fd_sc_hd__diode_2
XFILLER_35_292 VGND VGND VPWR VPWR sky130_fd_sc_hd__decap_6
XFILLER_12_44 VGND VGND VPWR VPWR sky130_fd_sc_hd__fill_2
XANTENNA_mux_bottom_ipin_5.sky130_fd_sc_hd__buf_4_0__A mux_bottom_ipin_5.mux_l4_in_0_/X
+ VGND VGND VPWR VPWR sky130_fd_sc_hd__diode_2
XFILLER_33_218 VGND VGND VPWR VPWR sky130_fd_sc_hd__fill_2
XFILLER_33_207 VGND VGND VPWR VPWR sky130_fd_sc_hd__decap_8
XFILLER_5_196 VGND VGND VPWR VPWR sky130_fd_sc_hd__decap_12
X_65_ chanx_left_in[6] chanx_right_out[6] VGND VGND VPWR VPWR sky130_fd_sc_hd__buf_2
XANTENNA_mux_bottom_ipin_8.mux_l1_in_0__A1 chanx_left_in[0] VGND VGND VPWR VPWR sky130_fd_sc_hd__diode_2
XANTENNA_mux_bottom_ipin_3.mux_l2_in_3__S mux_bottom_ipin_3.mux_l2_in_0_/S VGND VGND
+ VPWR VPWR sky130_fd_sc_hd__diode_2
XFILLER_23_295 VGND VGND VPWR VPWR sky130_fd_sc_hd__decap_4
XANTENNA_mux_bottom_ipin_1.mux_l4_in_0__S mux_bottom_ipin_1.mux_l4_in_0_/S VGND VGND
+ VPWR VPWR sky130_fd_sc_hd__diode_2
XFILLER_23_65 VGND VGND VPWR VPWR sky130_fd_sc_hd__fill_2
XFILLER_2_166 VGND VGND VPWR VPWR sky130_fd_sc_hd__decap_12
Xmux_bottom_ipin_7.sky130_fd_sc_hd__buf_4_0_ mux_bottom_ipin_7.mux_l4_in_0_/X top_grid_pin_23_
+ VGND VGND VPWR VPWR sky130_fd_sc_hd__buf_1
XFILLER_0_58 VGND VGND VPWR VPWR sky130_fd_sc_hd__fill_2
XANTENNA_mux_bottom_ipin_10.mux_l2_in_1__A0 chanx_left_in[6] VGND VGND VPWR VPWR sky130_fd_sc_hd__diode_2
Xmem_bottom_ipin_12.sky130_fd_sc_hd__dfxbp_1_2_ mux_bottom_ipin_12.mux_l2_in_2_/S
+ mux_bottom_ipin_12.mux_l3_in_1_/S mem_bottom_ipin_12.sky130_fd_sc_hd__dfxbp_1_2_/Q_N
+ prog_clk VGND VGND VPWR VPWR sky130_fd_sc_hd__dfxbp_1
XFILLER_9_23 VGND VGND VPWR VPWR sky130_fd_sc_hd__fill_2
XFILLER_14_284 VGND VGND VPWR VPWR sky130_fd_sc_hd__decap_4
Xmem_bottom_ipin_2.sky130_fd_sc_hd__dfxbp_1_3_ mux_bottom_ipin_2.mux_l3_in_1_/S mux_bottom_ipin_2.mux_l4_in_0_/S
+ mem_bottom_ipin_2.sky130_fd_sc_hd__dfxbp_1_3_/Q_N prog_clk VGND VGND VPWR VPWR sky130_fd_sc_hd__dfxbp_1
X_48_ chanx_right_in[3] chanx_left_out[3] VGND VGND VPWR VPWR sky130_fd_sc_hd__buf_2
XANTENNA_mux_bottom_ipin_7.mux_l3_in_1__S mux_bottom_ipin_7.mux_l3_in_0_/S VGND VGND
+ VPWR VPWR sky130_fd_sc_hd__diode_2
XFILLER_20_210 VGND VGND VPWR VPWR sky130_fd_sc_hd__fill_2
XFILLER_18_10 VGND VGND VPWR VPWR sky130_fd_sc_hd__fill_2
XFILLER_18_32 VGND VGND VPWR VPWR sky130_fd_sc_hd__fill_2
XFILLER_18_87 VGND VGND VPWR VPWR sky130_fd_sc_hd__fill_2
XFILLER_11_232 VGND VGND VPWR VPWR sky130_fd_sc_hd__decap_12
XFILLER_7_269 VGND VGND VPWR VPWR sky130_fd_sc_hd__decap_4
XFILLER_15_7 VGND VGND VPWR VPWR sky130_fd_sc_hd__fill_1
XFILLER_6_280 VGND VGND VPWR VPWR sky130_fd_sc_hd__decap_12
XFILLER_29_118 VGND VGND VPWR VPWR sky130_fd_sc_hd__fill_2
XFILLER_29_107 VGND VGND VPWR VPWR sky130_fd_sc_hd__fill_2
XANTENNA_mem_bottom_ipin_2.sky130_fd_sc_hd__dfxbp_1_2__D mux_bottom_ipin_2.mux_l2_in_3_/S
+ VGND VGND VPWR VPWR sky130_fd_sc_hd__diode_2
XFILLER_4_239 VGND VGND VPWR VPWR sky130_fd_sc_hd__decap_12
XANTENNA_mux_bottom_ipin_10.mux_l3_in_0__A0 mux_bottom_ipin_10.mux_l2_in_1_/X VGND
+ VGND VPWR VPWR sky130_fd_sc_hd__diode_2
XFILLER_20_77 VGND VGND VPWR VPWR sky130_fd_sc_hd__fill_2
XFILLER_28_151 VGND VGND VPWR VPWR sky130_fd_sc_hd__fill_2
XFILLER_6_68 VGND VGND VPWR VPWR sky130_fd_sc_hd__decap_12
XANTENNA_mem_bottom_ipin_13.sky130_fd_sc_hd__dfxbp_1_0__CLK prog_clk VGND VGND VPWR
+ VPWR sky130_fd_sc_hd__diode_2
XFILLER_19_140 VGND VGND VPWR VPWR sky130_fd_sc_hd__fill_2
XFILLER_19_184 VGND VGND VPWR VPWR sky130_fd_sc_hd__decap_4
XFILLER_34_154 VGND VGND VPWR VPWR sky130_fd_sc_hd__decap_12
Xmux_bottom_ipin_12.mux_l3_in_0_ mux_bottom_ipin_12.mux_l2_in_1_/X mux_bottom_ipin_12.mux_l2_in_0_/X
+ mux_bottom_ipin_12.mux_l3_in_1_/S mux_bottom_ipin_12.mux_l3_in_0_/X VGND VGND VPWR
+ VPWR sky130_fd_sc_hd__mux2_1
Xmux_bottom_ipin_2.mux_l1_in_0_ chanx_right_in[0] chanx_left_in[0] mux_bottom_ipin_2.mux_l1_in_0_/S
+ mux_bottom_ipin_2.mux_l1_in_0_/X VGND VGND VPWR VPWR sky130_fd_sc_hd__mux2_1
XANTENNA_mux_bottom_ipin_6.mux_l2_in_1__A1 chanx_right_in[2] VGND VGND VPWR VPWR sky130_fd_sc_hd__diode_2
XANTENNA_mem_bottom_ipin_0.sky130_fd_sc_hd__dfxbp_1_2__CLK prog_clk VGND VGND VPWR
+ VPWR sky130_fd_sc_hd__diode_2
XFILLER_15_66 VGND VGND VPWR VPWR sky130_fd_sc_hd__fill_1
XFILLER_15_99 VGND VGND VPWR VPWR sky130_fd_sc_hd__fill_2
XFILLER_0_242 VGND VGND VPWR VPWR sky130_fd_sc_hd__decap_6
XANTENNA_mux_bottom_ipin_8.sky130_fd_sc_hd__buf_4_0__A mux_bottom_ipin_8.mux_l4_in_0_/X
+ VGND VGND VPWR VPWR sky130_fd_sc_hd__diode_2
XPHY_193 VGND VPWR sky130_fd_sc_hd__tapvpwrvgnd_1
XFILLER_16_154 VGND VGND VPWR VPWR sky130_fd_sc_hd__decap_6
XFILLER_16_187 VGND VGND VPWR VPWR sky130_fd_sc_hd__fill_2
XPHY_160 VGND VPWR sky130_fd_sc_hd__tapvpwrvgnd_1
XPHY_171 VGND VPWR sky130_fd_sc_hd__tapvpwrvgnd_1
XPHY_182 VGND VPWR sky130_fd_sc_hd__tapvpwrvgnd_1
XANTENNA_mux_bottom_ipin_12.mux_l1_in_0__A1 chanx_left_in[0] VGND VGND VPWR VPWR sky130_fd_sc_hd__diode_2
XANTENNA_mux_bottom_ipin_4.mux_l2_in_3__A1 chanx_right_in[14] VGND VGND VPWR VPWR
+ sky130_fd_sc_hd__diode_2
XFILLER_26_54 VGND VGND VPWR VPWR sky130_fd_sc_hd__fill_2
XFILLER_9_106 VGND VGND VPWR VPWR sky130_fd_sc_hd__decap_12
XFILLER_13_113 VGND VGND VPWR VPWR sky130_fd_sc_hd__decap_8
XFILLER_13_135 VGND VGND VPWR VPWR sky130_fd_sc_hd__decap_12
XFILLER_13_179 VGND VGND VPWR VPWR sky130_fd_sc_hd__fill_2
XANTENNA_mux_bottom_ipin_3.mux_l1_in_0__A0 chanx_right_in[1] VGND VGND VPWR VPWR sky130_fd_sc_hd__diode_2
XANTENNA_mux_bottom_ipin_6.mux_l3_in_0__A1 mux_bottom_ipin_6.mux_l2_in_0_/X VGND VGND
+ VPWR VPWR sky130_fd_sc_hd__diode_2
Xmux_bottom_ipin_12.mux_l2_in_1_ chanx_left_in[12] mux_bottom_ipin_12.mux_l1_in_2_/X
+ mux_bottom_ipin_12.mux_l2_in_2_/S mux_bottom_ipin_12.mux_l2_in_1_/X VGND VGND VPWR
+ VPWR sky130_fd_sc_hd__mux2_1
XFILLER_29_290 VGND VGND VPWR VPWR sky130_fd_sc_hd__fill_2
XANTENNA_mem_bottom_ipin_3.sky130_fd_sc_hd__dfxbp_1_3__CLK prog_clk VGND VGND VPWR
+ VPWR sky130_fd_sc_hd__diode_2
XFILLER_12_190 VGND VGND VPWR VPWR sky130_fd_sc_hd__decap_8
Xmem_bottom_ipin_15.sky130_fd_sc_hd__dfxbp_1_2_ mux_bottom_ipin_15.mux_l2_in_2_/S
+ mux_bottom_ipin_15.mux_l3_in_1_/S mem_bottom_ipin_15.sky130_fd_sc_hd__dfxbp_1_2_/Q_N
+ prog_clk VGND VGND VPWR VPWR sky130_fd_sc_hd__dfxbp_1
XFILLER_27_238 VGND VGND VPWR VPWR sky130_fd_sc_hd__decap_4
Xmem_bottom_ipin_5.sky130_fd_sc_hd__dfxbp_1_3_ mux_bottom_ipin_5.mux_l3_in_1_/S mux_bottom_ipin_5.mux_l4_in_0_/S
+ mem_bottom_ipin_5.sky130_fd_sc_hd__dfxbp_1_3_/Q_N prog_clk VGND VGND VPWR VPWR sky130_fd_sc_hd__dfxbp_1
XFILLER_10_105 VGND VGND VPWR VPWR sky130_fd_sc_hd__decap_12
XFILLER_12_23 VGND VGND VPWR VPWR sky130_fd_sc_hd__decap_4
XFILLER_12_89 VGND VGND VPWR VPWR sky130_fd_sc_hd__decap_3
XANTENNA_mem_bottom_ipin_7.sky130_fd_sc_hd__dfxbp_1_1__D mux_bottom_ipin_7.mux_l1_in_0_/S
+ VGND VGND VPWR VPWR sky130_fd_sc_hd__diode_2
XFILLER_26_271 VGND VGND VPWR VPWR sky130_fd_sc_hd__fill_1
XFILLER_18_238 VGND VGND VPWR VPWR sky130_fd_sc_hd__decap_6
XANTENNA_mem_bottom_ipin_12.sky130_fd_sc_hd__dfxbp_1_2__D mux_bottom_ipin_12.mux_l2_in_2_/S
+ VGND VGND VPWR VPWR sky130_fd_sc_hd__diode_2
XANTENNA_mux_bottom_ipin_1.mux_l1_in_2__A0 chanx_right_in[5] VGND VGND VPWR VPWR sky130_fd_sc_hd__diode_2
X_64_ chanx_left_in[7] chanx_right_out[7] VGND VGND VPWR VPWR sky130_fd_sc_hd__buf_2
XFILLER_24_219 VGND VGND VPWR VPWR sky130_fd_sc_hd__fill_1
XANTENNA_mux_bottom_ipin_15.mux_l1_in_0__S mux_bottom_ipin_15.mux_l1_in_0_/S VGND
+ VGND VPWR VPWR sky130_fd_sc_hd__diode_2
Xmux_bottom_ipin_12.mux_l1_in_2_ chanx_right_in[6] chanx_left_in[6] mux_bottom_ipin_12.mux_l1_in_2_/S
+ mux_bottom_ipin_12.mux_l1_in_2_/X VGND VGND VPWR VPWR sky130_fd_sc_hd__mux2_1
XFILLER_23_77 VGND VGND VPWR VPWR sky130_fd_sc_hd__fill_1
XFILLER_23_241 VGND VGND VPWR VPWR sky130_fd_sc_hd__fill_1
XFILLER_3_3 VGND VGND VPWR VPWR sky130_fd_sc_hd__decap_12
XFILLER_2_178 VGND VGND VPWR VPWR sky130_fd_sc_hd__decap_12
XFILLER_0_15 VGND VGND VPWR VPWR sky130_fd_sc_hd__decap_12
XFILLER_9_35 VGND VGND VPWR VPWR sky130_fd_sc_hd__fill_2
XFILLER_14_263 VGND VGND VPWR VPWR sky130_fd_sc_hd__decap_8
XFILLER_14_274 VGND VGND VPWR VPWR sky130_fd_sc_hd__fill_1
XANTENNA_mux_bottom_ipin_10.mux_l2_in_1__A1 chanx_right_in[2] VGND VGND VPWR VPWR
+ sky130_fd_sc_hd__diode_2
Xmux_bottom_ipin_7.mux_l1_in_0_ chanx_right_in[1] chanx_left_in[1] mux_bottom_ipin_7.mux_l1_in_0_/S
+ mux_bottom_ipin_7.mux_l1_in_0_/X VGND VGND VPWR VPWR sky130_fd_sc_hd__mux2_1
Xmem_bottom_ipin_12.sky130_fd_sc_hd__dfxbp_1_1_ mux_bottom_ipin_12.mux_l1_in_2_/S
+ mux_bottom_ipin_12.mux_l2_in_2_/S mem_bottom_ipin_12.sky130_fd_sc_hd__dfxbp_1_1_/Q_N
+ prog_clk VGND VGND VPWR VPWR sky130_fd_sc_hd__dfxbp_1
Xmem_bottom_ipin_2.sky130_fd_sc_hd__dfxbp_1_2_ mux_bottom_ipin_2.mux_l2_in_3_/S mux_bottom_ipin_2.mux_l3_in_1_/S
+ mem_bottom_ipin_2.sky130_fd_sc_hd__dfxbp_1_2_/Q_N prog_clk VGND VGND VPWR VPWR sky130_fd_sc_hd__dfxbp_1
X_47_ chanx_right_in[4] chanx_left_out[4] VGND VGND VPWR VPWR sky130_fd_sc_hd__buf_2
XFILLER_34_32 VGND VGND VPWR VPWR sky130_fd_sc_hd__decap_12
XFILLER_11_255 VGND VGND VPWR VPWR sky130_fd_sc_hd__fill_2
XANTENNA_mux_bottom_ipin_1.mux_l2_in_1__A0 chanx_left_in[11] VGND VGND VPWR VPWR sky130_fd_sc_hd__diode_2
XANTENNA_mem_bottom_ipin_7.sky130_fd_sc_hd__dfxbp_1_0__CLK prog_clk VGND VGND VPWR
+ VPWR sky130_fd_sc_hd__diode_2
XANTENNA_mux_bottom_ipin_0.mux_l1_in_0__S mux_bottom_ipin_0.mux_l1_in_1_/S VGND VGND
+ VPWR VPWR sky130_fd_sc_hd__diode_2
XFILLER_6_292 VGND VGND VPWR VPWR sky130_fd_sc_hd__decap_6
XANTENNA_mux_bottom_ipin_14.mux_l2_in_0__S mux_bottom_ipin_14.mux_l2_in_1_/S VGND
+ VGND VPWR VPWR sky130_fd_sc_hd__diode_2
XANTENNA_mux_bottom_ipin_10.mux_l3_in_0__A1 mux_bottom_ipin_10.mux_l2_in_0_/X VGND
+ VGND VPWR VPWR sky130_fd_sc_hd__diode_2
XFILLER_29_76 VGND VGND VPWR VPWR sky130_fd_sc_hd__fill_2
XFILLER_29_65 VGND VGND VPWR VPWR sky130_fd_sc_hd__decap_4
XFILLER_34_166 VGND VGND VPWR VPWR sky130_fd_sc_hd__decap_12
XANTENNA_mux_bottom_ipin_1.mux_l3_in_0__A0 mux_bottom_ipin_1.mux_l2_in_1_/X VGND VGND
+ VPWR VPWR sky130_fd_sc_hd__diode_2
Xmem_bottom_ipin_8.sky130_fd_sc_hd__dfxbp_1_3_ mux_bottom_ipin_8.mux_l3_in_1_/S mux_bottom_ipin_8.mux_l4_in_0_/S
+ mem_bottom_ipin_8.sky130_fd_sc_hd__dfxbp_1_3_/Q_N prog_clk VGND VGND VPWR VPWR sky130_fd_sc_hd__dfxbp_1
XFILLER_25_177 VGND VGND VPWR VPWR sky130_fd_sc_hd__decap_4
XFILLER_15_23 VGND VGND VPWR VPWR sky130_fd_sc_hd__fill_2
XFILLER_15_78 VGND VGND VPWR VPWR sky130_fd_sc_hd__fill_2
XFILLER_31_77 VGND VGND VPWR VPWR sky130_fd_sc_hd__decap_8
XFILLER_31_11 VGND VGND VPWR VPWR sky130_fd_sc_hd__fill_1
XFILLER_0_298 VGND VGND VPWR VPWR sky130_fd_sc_hd__fill_1
XFILLER_31_158 VGND VGND VPWR VPWR sky130_fd_sc_hd__fill_2
XFILLER_31_136 VGND VGND VPWR VPWR sky130_fd_sc_hd__fill_2
XFILLER_31_114 VGND VGND VPWR VPWR sky130_fd_sc_hd__decap_4
XPHY_194 VGND VPWR sky130_fd_sc_hd__tapvpwrvgnd_1
XPHY_150 VGND VPWR sky130_fd_sc_hd__tapvpwrvgnd_1
XPHY_161 VGND VPWR sky130_fd_sc_hd__tapvpwrvgnd_1
XPHY_172 VGND VPWR sky130_fd_sc_hd__tapvpwrvgnd_1
XPHY_183 VGND VPWR sky130_fd_sc_hd__tapvpwrvgnd_1
XFILLER_22_158 VGND VGND VPWR VPWR sky130_fd_sc_hd__decap_8
XANTENNA_mux_bottom_ipin_13.mux_l3_in_0__S mux_bottom_ipin_13.mux_l3_in_1_/S VGND
+ VGND VPWR VPWR sky130_fd_sc_hd__diode_2
XANTENNA_mux_bottom_ipin_5.mux_l1_in_1__S mux_bottom_ipin_5.mux_l1_in_1_/S VGND VGND
+ VPWR VPWR sky130_fd_sc_hd__diode_2
XFILLER_26_88 VGND VGND VPWR VPWR sky130_fd_sc_hd__decap_4
XFILLER_9_118 VGND VGND VPWR VPWR sky130_fd_sc_hd__decap_4
XFILLER_13_147 VGND VGND VPWR VPWR sky130_fd_sc_hd__decap_12
XFILLER_21_180 VGND VGND VPWR VPWR sky130_fd_sc_hd__fill_1
XANTENNA_mux_bottom_ipin_3.mux_l1_in_0__A1 chanx_left_in[1] VGND VGND VPWR VPWR sky130_fd_sc_hd__diode_2
XFILLER_3_59 VGND VGND VPWR VPWR sky130_fd_sc_hd__fill_2
XFILLER_3_15 VGND VGND VPWR VPWR sky130_fd_sc_hd__decap_12
Xmux_bottom_ipin_12.mux_l2_in_0_ mux_bottom_ipin_12.mux_l1_in_1_/X mux_bottom_ipin_12.mux_l1_in_0_/X
+ mux_bottom_ipin_12.mux_l2_in_2_/S mux_bottom_ipin_12.mux_l2_in_0_/X VGND VGND VPWR
+ VPWR sky130_fd_sc_hd__mux2_1
Xmem_bottom_ipin_15.sky130_fd_sc_hd__dfxbp_1_1_ mux_bottom_ipin_15.mux_l1_in_0_/S
+ mux_bottom_ipin_15.mux_l2_in_2_/S mem_bottom_ipin_15.sky130_fd_sc_hd__dfxbp_1_1_/Q_N
+ prog_clk VGND VGND VPWR VPWR sky130_fd_sc_hd__dfxbp_1
XFILLER_27_217 VGND VGND VPWR VPWR sky130_fd_sc_hd__fill_2
Xmem_bottom_ipin_5.sky130_fd_sc_hd__dfxbp_1_2_ mux_bottom_ipin_5.mux_l2_in_3_/S mux_bottom_ipin_5.mux_l3_in_1_/S
+ mem_bottom_ipin_5.sky130_fd_sc_hd__dfxbp_1_2_/Q_N prog_clk VGND VGND VPWR VPWR sky130_fd_sc_hd__dfxbp_1
XFILLER_35_261 VGND VGND VPWR VPWR sky130_fd_sc_hd__decap_12
XFILLER_10_117 VGND VGND VPWR VPWR sky130_fd_sc_hd__decap_12
XFILLER_5_7 VGND VGND VPWR VPWR sky130_fd_sc_hd__fill_2
XFILLER_26_250 VGND VGND VPWR VPWR sky130_fd_sc_hd__fill_2
XFILLER_5_110 VGND VGND VPWR VPWR sky130_fd_sc_hd__decap_12
X_63_ chanx_left_in[8] chanx_right_out[8] VGND VGND VPWR VPWR sky130_fd_sc_hd__buf_2
XANTENNA_mux_bottom_ipin_1.mux_l1_in_2__A1 chanx_left_in[5] VGND VGND VPWR VPWR sky130_fd_sc_hd__diode_2
XFILLER_4_80 VGND VGND VPWR VPWR sky130_fd_sc_hd__decap_12
XANTENNA_mux_bottom_ipin_14.mux_l2_in_3__S mux_bottom_ipin_14.mux_l2_in_1_/S VGND
+ VGND VPWR VPWR sky130_fd_sc_hd__diode_2
XFILLER_23_220 VGND VGND VPWR VPWR sky130_fd_sc_hd__fill_2
XANTENNA_mux_bottom_ipin_12.mux_l4_in_0__S mux_bottom_ipin_12.mux_l4_in_0_/S VGND
+ VGND VPWR VPWR sky130_fd_sc_hd__diode_2
XANTENNA_mux_bottom_ipin_4.mux_l2_in_1__S mux_bottom_ipin_4.mux_l2_in_0_/S VGND VGND
+ VPWR VPWR sky130_fd_sc_hd__diode_2
Xmux_bottom_ipin_12.mux_l1_in_1_ chanx_right_in[2] chanx_left_in[2] mux_bottom_ipin_12.mux_l1_in_2_/S
+ mux_bottom_ipin_12.mux_l1_in_1_/X VGND VGND VPWR VPWR sky130_fd_sc_hd__mux2_1
XFILLER_23_264 VGND VGND VPWR VPWR sky130_fd_sc_hd__fill_2
XFILLER_0_27 VGND VGND VPWR VPWR sky130_fd_sc_hd__decap_4
XFILLER_9_47 VGND VGND VPWR VPWR sky130_fd_sc_hd__fill_2
XFILLER_14_220 VGND VGND VPWR VPWR sky130_fd_sc_hd__fill_2
XFILLER_14_231 VGND VGND VPWR VPWR sky130_fd_sc_hd__fill_2
Xmem_bottom_ipin_12.sky130_fd_sc_hd__dfxbp_1_0_ mux_bottom_ipin_11.mux_l4_in_0_/S
+ mux_bottom_ipin_12.mux_l1_in_2_/S mem_bottom_ipin_12.sky130_fd_sc_hd__dfxbp_1_0_/Q_N
+ prog_clk VGND VGND VPWR VPWR sky130_fd_sc_hd__dfxbp_1
XFILLER_29_3 VGND VGND VPWR VPWR sky130_fd_sc_hd__fill_1
Xmem_bottom_ipin_2.sky130_fd_sc_hd__dfxbp_1_1_ mux_bottom_ipin_2.mux_l1_in_0_/S mux_bottom_ipin_2.mux_l2_in_3_/S
+ mem_bottom_ipin_2.sky130_fd_sc_hd__dfxbp_1_1_/Q_N prog_clk VGND VGND VPWR VPWR sky130_fd_sc_hd__dfxbp_1
XANTENNA_mux_bottom_ipin_8.mux_l2_in_2__A0 chanx_left_in[18] VGND VGND VPWR VPWR sky130_fd_sc_hd__diode_2
X_46_ chanx_right_in[5] chanx_left_out[5] VGND VGND VPWR VPWR sky130_fd_sc_hd__buf_2
XFILLER_20_245 VGND VGND VPWR VPWR sky130_fd_sc_hd__fill_1
XFILLER_20_267 VGND VGND VPWR VPWR sky130_fd_sc_hd__fill_2
XFILLER_20_289 VGND VGND VPWR VPWR sky130_fd_sc_hd__decap_8
XFILLER_18_23 VGND VGND VPWR VPWR sky130_fd_sc_hd__fill_2
XFILLER_18_56 VGND VGND VPWR VPWR sky130_fd_sc_hd__fill_2
XFILLER_34_44 VGND VGND VPWR VPWR sky130_fd_sc_hd__decap_12
XANTENNA_mux_bottom_ipin_1.mux_l2_in_1__A1 mux_bottom_ipin_1.mux_l1_in_2_/X VGND VGND
+ VPWR VPWR sky130_fd_sc_hd__diode_2
XFILLER_11_245 VGND VGND VPWR VPWR sky130_fd_sc_hd__decap_8
XFILLER_11_267 VGND VGND VPWR VPWR sky130_fd_sc_hd__fill_2
X_29_ _29_/HI _29_/LO VGND VGND VPWR VPWR sky130_fd_sc_hd__conb_1
XFILLER_20_24 VGND VGND VPWR VPWR sky130_fd_sc_hd__fill_2
XANTENNA_mux_bottom_ipin_3.mux_l3_in_1__S mux_bottom_ipin_3.mux_l3_in_0_/S VGND VGND
+ VPWR VPWR sky130_fd_sc_hd__diode_2
XFILLER_29_99 VGND VGND VPWR VPWR sky130_fd_sc_hd__fill_2
XFILLER_29_55 VGND VGND VPWR VPWR sky130_fd_sc_hd__fill_2
XANTENNA_mux_bottom_ipin_8.mux_l3_in_1__A0 mux_bottom_ipin_8.mux_l2_in_3_/X VGND VGND
+ VPWR VPWR sky130_fd_sc_hd__diode_2
XFILLER_20_7 VGND VGND VPWR VPWR sky130_fd_sc_hd__fill_1
XFILLER_34_178 VGND VGND VPWR VPWR sky130_fd_sc_hd__decap_12
Xmux_bottom_ipin_0.sky130_fd_sc_hd__buf_4_0_ mux_bottom_ipin_0.mux_l4_in_0_/X top_grid_pin_16_
+ VGND VGND VPWR VPWR sky130_fd_sc_hd__buf_1
XANTENNA_mux_bottom_ipin_12.sky130_fd_sc_hd__buf_4_0__A mux_bottom_ipin_12.mux_l4_in_0_/X
+ VGND VGND VPWR VPWR sky130_fd_sc_hd__diode_2
XFILLER_19_164 VGND VGND VPWR VPWR sky130_fd_sc_hd__fill_2
XANTENNA_mux_bottom_ipin_9.mux_l2_in_2__S mux_bottom_ipin_9.mux_l2_in_2_/S VGND VGND
+ VPWR VPWR sky130_fd_sc_hd__diode_2
XANTENNA_mux_bottom_ipin_1.mux_l3_in_0__A1 mux_bottom_ipin_1.mux_l2_in_0_/X VGND VGND
+ VPWR VPWR sky130_fd_sc_hd__diode_2
XFILLER_25_123 VGND VGND VPWR VPWR sky130_fd_sc_hd__fill_2
Xmem_bottom_ipin_8.sky130_fd_sc_hd__dfxbp_1_2_ mux_bottom_ipin_8.mux_l2_in_2_/S mux_bottom_ipin_8.mux_l3_in_1_/S
+ mem_bottom_ipin_8.sky130_fd_sc_hd__dfxbp_1_2_/Q_N prog_clk VGND VGND VPWR VPWR sky130_fd_sc_hd__dfxbp_1
XFILLER_25_167 VGND VGND VPWR VPWR sky130_fd_sc_hd__decap_4
XFILLER_15_57 VGND VGND VPWR VPWR sky130_fd_sc_hd__fill_2
XFILLER_31_89 VGND VGND VPWR VPWR sky130_fd_sc_hd__fill_2
XFILLER_31_23 VGND VGND VPWR VPWR sky130_fd_sc_hd__decap_12
XANTENNA_mux_bottom_ipin_14.mux_l2_in_0__A0 chanx_left_in[2] VGND VGND VPWR VPWR sky130_fd_sc_hd__diode_2
XFILLER_0_211 VGND VGND VPWR VPWR sky130_fd_sc_hd__decap_6
XPHY_195 VGND VPWR sky130_fd_sc_hd__tapvpwrvgnd_1
XPHY_140 VGND VPWR sky130_fd_sc_hd__tapvpwrvgnd_1
XPHY_151 VGND VPWR sky130_fd_sc_hd__tapvpwrvgnd_1
XPHY_162 VGND VPWR sky130_fd_sc_hd__tapvpwrvgnd_1
XANTENNA_mem_bottom_ipin_4.sky130_fd_sc_hd__dfxbp_1_0__D mux_bottom_ipin_3.mux_l4_in_0_/S
+ VGND VGND VPWR VPWR sky130_fd_sc_hd__diode_2
XPHY_173 VGND VPWR sky130_fd_sc_hd__tapvpwrvgnd_1
XPHY_184 VGND VPWR sky130_fd_sc_hd__tapvpwrvgnd_1
XFILLER_11_3 VGND VGND VPWR VPWR sky130_fd_sc_hd__decap_4
XANTENNA_mux_bottom_ipin_8.mux_l4_in_0__A0 mux_bottom_ipin_8.mux_l3_in_1_/X VGND VGND
+ VPWR VPWR sky130_fd_sc_hd__diode_2
XFILLER_26_67 VGND VGND VPWR VPWR sky130_fd_sc_hd__fill_2
XFILLER_26_23 VGND VGND VPWR VPWR sky130_fd_sc_hd__fill_2
XFILLER_13_159 VGND VGND VPWR VPWR sky130_fd_sc_hd__decap_12
XANTENNA_mux_bottom_ipin_12.mux_l2_in_2__A0 chanx_left_in[16] VGND VGND VPWR VPWR
+ sky130_fd_sc_hd__diode_2
XFILLER_3_27 VGND VGND VPWR VPWR sky130_fd_sc_hd__decap_12
XFILLER_8_141 VGND VGND VPWR VPWR sky130_fd_sc_hd__decap_12
Xmem_bottom_ipin_15.sky130_fd_sc_hd__dfxbp_1_0_ mux_bottom_ipin_14.mux_l4_in_0_/S
+ mux_bottom_ipin_15.mux_l1_in_0_/S mem_bottom_ipin_15.sky130_fd_sc_hd__dfxbp_1_0_/Q_N
+ prog_clk VGND VGND VPWR VPWR sky130_fd_sc_hd__dfxbp_1
XFILLER_35_273 VGND VGND VPWR VPWR sky130_fd_sc_hd__decap_6
Xmem_bottom_ipin_5.sky130_fd_sc_hd__dfxbp_1_1_ mux_bottom_ipin_5.mux_l1_in_1_/S mux_bottom_ipin_5.mux_l2_in_3_/S
+ mem_bottom_ipin_5.sky130_fd_sc_hd__dfxbp_1_1_/Q_N prog_clk VGND VGND VPWR VPWR sky130_fd_sc_hd__dfxbp_1
XFILLER_10_129 VGND VGND VPWR VPWR sky130_fd_sc_hd__decap_12
XFILLER_18_207 VGND VGND VPWR VPWR sky130_fd_sc_hd__fill_1
XANTENNA_mem_bottom_ipin_10.sky130_fd_sc_hd__dfxbp_1_2__CLK prog_clk VGND VGND VPWR
+ VPWR sky130_fd_sc_hd__diode_2
X_62_ chanx_left_in[9] chanx_right_out[9] VGND VGND VPWR VPWR sky130_fd_sc_hd__buf_2
XFILLER_17_262 VGND VGND VPWR VPWR sky130_fd_sc_hd__decap_4
XFILLER_32_254 VGND VGND VPWR VPWR sky130_fd_sc_hd__fill_2
XFILLER_17_295 VGND VGND VPWR VPWR sky130_fd_sc_hd__decap_4
XANTENNA_mux_bottom_ipin_12.mux_l3_in_1__A0 mux_bottom_ipin_12.mux_l2_in_3_/X VGND
+ VGND VPWR VPWR sky130_fd_sc_hd__diode_2
Xmux_bottom_ipin_12.mux_l1_in_0_ chanx_right_in[0] chanx_left_in[0] mux_bottom_ipin_12.mux_l1_in_2_/S
+ mux_bottom_ipin_12.mux_l1_in_0_/X VGND VGND VPWR VPWR sky130_fd_sc_hd__mux2_1
XFILLER_23_254 VGND VGND VPWR VPWR sky130_fd_sc_hd__decap_4
XFILLER_23_57 VGND VGND VPWR VPWR sky130_fd_sc_hd__fill_2
Xmem_bottom_ipin_2.sky130_fd_sc_hd__dfxbp_1_0_ mux_bottom_ipin_1.mux_l4_in_0_/S mux_bottom_ipin_2.mux_l1_in_0_/S
+ mem_bottom_ipin_2.sky130_fd_sc_hd__dfxbp_1_0_/Q_N prog_clk VGND VGND VPWR VPWR sky130_fd_sc_hd__dfxbp_1
XANTENNA_mux_bottom_ipin_8.mux_l2_in_2__A1 chanx_right_in[12] VGND VGND VPWR VPWR