* NGSPICE file created from cbx_1__0_.ext - technology: EFS8A

* Black-box entry subcircuit for scs8hd_fill_2 abstract view
.subckt scs8hd_fill_2 vpwr vgnd
.ends

* Black-box entry subcircuit for scs8hd_decap_8 abstract view
.subckt scs8hd_decap_8 vgnd vpwr
.ends

* Black-box entry subcircuit for scs8hd_diode_2 abstract view
.subckt scs8hd_diode_2 DIODE vgnd vpwr
.ends

* Black-box entry subcircuit for scs8hd_ebufn_2 abstract view
.subckt scs8hd_ebufn_2 A TEB Z vgnd vpwr
.ends

* Black-box entry subcircuit for scs8hd_decap_3 abstract view
.subckt scs8hd_decap_3 vgnd vpwr
.ends

* Black-box entry subcircuit for scs8hd_lpflow_inputisolatch_1 abstract view
.subckt scs8hd_lpflow_inputisolatch_1 D Q SLEEPB vgnd vpwr
.ends

* Black-box entry subcircuit for scs8hd_decap_12 abstract view
.subckt scs8hd_decap_12 vgnd vpwr
.ends

* Black-box entry subcircuit for scs8hd_conb_1 abstract view
.subckt scs8hd_conb_1 HI LO vgnd vpwr
.ends

* Black-box entry subcircuit for scs8hd_or3_4 abstract view
.subckt scs8hd_or3_4 A B C X vgnd vpwr
.ends

* Black-box entry subcircuit for scs8hd_fill_1 abstract view
.subckt scs8hd_fill_1 vgnd vpwr
.ends

* Black-box entry subcircuit for scs8hd_inv_8 abstract view
.subckt scs8hd_inv_8 A Y vgnd vpwr
.ends

* Black-box entry subcircuit for scs8hd_nor2_4 abstract view
.subckt scs8hd_nor2_4 A B Y vgnd vpwr
.ends

* Black-box entry subcircuit for scs8hd_decap_4 abstract view
.subckt scs8hd_decap_4 vgnd vpwr
.ends

* Black-box entry subcircuit for scs8hd_decap_6 abstract view
.subckt scs8hd_decap_6 vgnd vpwr
.ends

* Black-box entry subcircuit for scs8hd_inv_1 abstract view
.subckt scs8hd_inv_1 A Y vgnd vpwr
.ends

* Black-box entry subcircuit for scs8hd_tapvpwrvgnd_1 abstract view
.subckt scs8hd_tapvpwrvgnd_1 vgnd vpwr
.ends

* Black-box entry subcircuit for scs8hd_or4_4 abstract view
.subckt scs8hd_or4_4 A B C D X vgnd vpwr
.ends

* Black-box entry subcircuit for scs8hd_buf_2 abstract view
.subckt scs8hd_buf_2 A X vgnd vpwr
.ends

* Black-box entry subcircuit for scs8hd_nor4_4 abstract view
.subckt scs8hd_nor4_4 A B C D Y vgnd vpwr
.ends

* Black-box entry subcircuit for scs8hd_or2_4 abstract view
.subckt scs8hd_or2_4 A B X vgnd vpwr
.ends

* Black-box entry subcircuit for scs8hd_nand3_4 abstract view
.subckt scs8hd_nand3_4 A B C Y vgnd vpwr
.ends

.subckt cbx_1__0_ address[0] address[1] address[2] address[3] address[4] address[5]
+ address[6] bottom_grid_pin_0_ bottom_grid_pin_10_ bottom_grid_pin_12_ bottom_grid_pin_14_
+ bottom_grid_pin_2_ bottom_grid_pin_4_ bottom_grid_pin_6_ bottom_grid_pin_8_ chanx_left_in[0]
+ chanx_left_in[1] chanx_left_in[2] chanx_left_in[3] chanx_left_in[4] chanx_left_in[5]
+ chanx_left_in[6] chanx_left_in[7] chanx_left_in[8] chanx_left_out[0] chanx_left_out[1]
+ chanx_left_out[2] chanx_left_out[3] chanx_left_out[4] chanx_left_out[5] chanx_left_out[6]
+ chanx_left_out[7] chanx_left_out[8] chanx_right_in[0] chanx_right_in[1] chanx_right_in[2]
+ chanx_right_in[3] chanx_right_in[4] chanx_right_in[5] chanx_right_in[6] chanx_right_in[7]
+ chanx_right_in[8] chanx_right_out[0] chanx_right_out[1] chanx_right_out[2] chanx_right_out[3]
+ chanx_right_out[4] chanx_right_out[5] chanx_right_out[6] chanx_right_out[7] chanx_right_out[8]
+ data_in enable top_grid_pin_14_ top_grid_pin_2_ top_grid_pin_6_ vpwr vgnd
XFILLER_22_144 vpwr vgnd scs8hd_fill_2
XFILLER_22_166 vgnd vpwr scs8hd_decap_8
XFILLER_7_7 vgnd vpwr scs8hd_decap_8
XFILLER_26_41 vpwr vgnd scs8hd_fill_2
XANTENNA_mux_top_ipin_3.mux_l1_in_1_.TGATE_2_.scs8hd_ebufn_2_A mux_top_ipin_3.INVTX1_5_.scs8hd_inv_1/Y
+ vgnd vpwr scs8hd_diode_2
Xmux_top_ipin_7.mux_l1_in_0_.TGATE_0_.scs8hd_ebufn_2 mux_top_ipin_7.INVTX1_0_.scs8hd_inv_1/Y
+ mem_top_ipin_7.LATCH_0_.latch/Q mux_top_ipin_7.mux_l1_in_0_.TGATE_0_.scs8hd_ebufn_2/Z
+ vgnd vpwr scs8hd_ebufn_2
XFILLER_13_188 vgnd vpwr scs8hd_decap_3
XFILLER_3_23 vpwr vgnd scs8hd_fill_2
XANTENNA__113__B _111_/B vgnd vpwr scs8hd_diode_2
Xmem_bottom_ipin_2.LATCH_1_.latch data_in mem_bottom_ipin_2.LATCH_1_.latch/Q _120_/Y
+ vgnd vpwr scs8hd_lpflow_inputisolatch_1
XFILLER_10_103 vpwr vgnd scs8hd_fill_2
XFILLER_12_32 vgnd vpwr scs8hd_decap_3
XANTENNA_mem_top_ipin_3.LATCH_3_.latch_SLEEPB _072_/Y vgnd vpwr scs8hd_diode_2
XANTENNA__108__B address[3] vgnd vpwr scs8hd_diode_2
XANTENNA__124__A _117_/A vgnd vpwr scs8hd_diode_2
Xmux_top_ipin_4.mux_l2_in_0_.TGATE_0_.scs8hd_ebufn_2 mux_top_ipin_4.mux_l1_in_0_.TGATE_0_.scs8hd_ebufn_2/Z
+ mem_top_ipin_4.LATCH_3_.latch/Q mux_top_ipin_4.tap_buf4_0_.scs8hd_inv_1/A vgnd vpwr
+ scs8hd_ebufn_2
XANTENNA_mux_bottom_ipin_1.mux_l1_in_0_.TGATE_1_.scs8hd_ebufn_2_TEB _041_/Y vgnd vpwr
+ scs8hd_diode_2
XANTENNA_mux_top_ipin_6.tap_buf4_0_.scs8hd_inv_1_A mux_top_ipin_6.tap_buf4_0_.scs8hd_inv_1/A
+ vgnd vpwr scs8hd_diode_2
XFILLER_23_20 vpwr vgnd scs8hd_fill_2
XFILLER_15_217 vgnd vpwr scs8hd_decap_12
X_131_ _131_/HI _131_/LO vgnd vpwr scs8hd_conb_1
XFILLER_23_53 vpwr vgnd scs8hd_fill_2
XFILLER_23_31 vpwr vgnd scs8hd_fill_2
X_062_ address[4] _122_/B _069_/C _062_/X vgnd vpwr scs8hd_or3_4
XFILLER_2_154 vgnd vpwr scs8hd_decap_3
XANTENNA_mem_top_ipin_0.LATCH_3_.latch_D data_in vgnd vpwr scs8hd_diode_2
XFILLER_17_9 vgnd vpwr scs8hd_fill_1
XANTENNA__119__A _119_/A vgnd vpwr scs8hd_diode_2
XFILLER_9_66 vgnd vpwr scs8hd_fill_1
XANTENNA_mem_top_ipin_1.LATCH_1_.latch_D data_in vgnd vpwr scs8hd_diode_2
X_045_ address[6] _083_/A vgnd vpwr scs8hd_inv_8
XANTENNA__105__C address[5] vgnd vpwr scs8hd_diode_2
Xmem_top_ipin_5.LATCH_0_.latch data_in mem_top_ipin_5.LATCH_0_.latch/Q _090_/Y vgnd
+ vpwr scs8hd_lpflow_inputisolatch_1
X_114_ _075_/A _111_/B _114_/Y vgnd vpwr scs8hd_nor2_4
XANTENNA__121__B _118_/B vgnd vpwr scs8hd_diode_2
XFILLER_22_7 vgnd vpwr scs8hd_decap_12
XANTENNA_mux_top_ipin_4.mux_l2_in_0_.TGATE_2_.scs8hd_ebufn_2_A _136_/HI vgnd vpwr
+ scs8hd_diode_2
XANTENNA_mux_top_ipin_2.INVTX1_1_.scs8hd_inv_1_A chanx_right_in[0] vgnd vpwr scs8hd_diode_2
XFILLER_4_205 vgnd vpwr scs8hd_fill_1
Xmux_top_ipin_0.mux_l1_in_1_.TGATE_0_.scs8hd_ebufn_2 mux_top_ipin_0.INVTX1_3_.scs8hd_inv_1/Y
+ mem_top_ipin_0.LATCH_0_.latch/Q mux_top_ipin_0.mux_l1_in_1_.TGATE_2_.scs8hd_ebufn_2/Z
+ vgnd vpwr scs8hd_ebufn_2
XFILLER_20_43 vpwr vgnd scs8hd_fill_2
XFILLER_20_87 vgnd vpwr scs8hd_decap_4
Xmem_top_ipin_7.LATCH_3_.latch data_in mem_top_ipin_7.LATCH_3_.latch/Q _101_/Y vgnd
+ vpwr scs8hd_lpflow_inputisolatch_1
XANTENNA__116__B _118_/B vgnd vpwr scs8hd_diode_2
XANTENNA_mux_top_ipin_6.INVTX1_2_.scs8hd_inv_1_A chanx_left_in[4] vgnd vpwr scs8hd_diode_2
XFILLER_6_45 vgnd vpwr scs8hd_decap_6
XANTENNA_mux_top_ipin_0.mux_l1_in_0_.TGATE_2_.scs8hd_ebufn_2_A mux_top_ipin_0.INVTX1_2_.scs8hd_inv_1/Y
+ vgnd vpwr scs8hd_diode_2
XFILLER_26_109 vgnd vpwr scs8hd_decap_6
Xmux_bottom_ipin_0.mux_l2_in_0_.TGATE_2_.scs8hd_ebufn_2 _129_/HI mem_bottom_ipin_0.LATCH_5_.latch/Q
+ mux_bottom_ipin_0.tap_buf4_0_.scs8hd_inv_1/A vgnd vpwr scs8hd_ebufn_2
XFILLER_13_3 vgnd vpwr scs8hd_decap_4
XFILLER_19_161 vpwr vgnd scs8hd_fill_2
XANTENNA_mem_top_ipin_1.LATCH_4_.latch_SLEEPB _053_/Y vgnd vpwr scs8hd_diode_2
XFILLER_34_186 vgnd vpwr scs8hd_fill_1
XANTENNA__042__A address[1] vgnd vpwr scs8hd_diode_2
Xmux_bottom_ipin_0.INVTX1_3_.scs8hd_inv_1 chanx_right_in[4] mux_bottom_ipin_0.INVTX1_3_.scs8hd_inv_1/Y
+ vgnd vpwr scs8hd_inv_1
XFILLER_25_175 vpwr vgnd scs8hd_fill_2
XFILLER_25_164 vpwr vgnd scs8hd_fill_2
XFILLER_25_197 vpwr vgnd scs8hd_fill_2
XANTENNA_mem_top_ipin_4.LATCH_5_.latch_D data_in vgnd vpwr scs8hd_diode_2
XANTENNA_mem_top_ipin_5.LATCH_3_.latch_D data_in vgnd vpwr scs8hd_diode_2
XFILLER_31_123 vgnd vpwr scs8hd_decap_12
XPHY_170 vgnd vpwr scs8hd_tapvpwrvgnd_1
XANTENNA__127__A _120_/A vgnd vpwr scs8hd_diode_2
XFILLER_16_186 vgnd vpwr scs8hd_decap_4
XPHY_192 vgnd vpwr scs8hd_tapvpwrvgnd_1
XPHY_181 vgnd vpwr scs8hd_tapvpwrvgnd_1
XANTENNA_mem_top_ipin_6.LATCH_1_.latch_D data_in vgnd vpwr scs8hd_diode_2
XFILLER_22_123 vgnd vpwr scs8hd_decap_8
XFILLER_9_127 vgnd vpwr scs8hd_decap_3
Xmux_top_ipin_4.mux_l1_in_1_.TGATE_1_.scs8hd_ebufn_2 mux_top_ipin_4.INVTX1_4_.scs8hd_inv_1/Y
+ mem_top_ipin_4.LATCH_1_.latch/Q mux_top_ipin_4.mux_l1_in_1_.TGATE_1_.scs8hd_ebufn_2/Z
+ vgnd vpwr scs8hd_ebufn_2
XFILLER_3_57 vpwr vgnd scs8hd_fill_2
XANTENNA_mux_top_ipin_0.mux_l2_in_0_.TGATE_0_.scs8hd_ebufn_2_A mux_top_ipin_0.mux_l1_in_0_.TGATE_2_.scs8hd_ebufn_2/Z
+ vgnd vpwr scs8hd_diode_2
Xmux_top_ipin_5.INVTX1_0_.scs8hd_inv_1 chanx_left_in[3] mux_top_ipin_5.INVTX1_0_.scs8hd_inv_1/Y
+ vgnd vpwr scs8hd_inv_1
XANTENNA_mux_top_ipin_7.mux_l1_in_0_.TGATE_1_.scs8hd_ebufn_2_A mux_top_ipin_7.INVTX1_1_.scs8hd_inv_1/Y
+ vgnd vpwr scs8hd_diode_2
XANTENNA_mux_bottom_ipin_1.mux_l1_in_0_.TGATE_1_.scs8hd_ebufn_2_A mux_bottom_ipin_1.INVTX1_1_.scs8hd_inv_1/Y
+ vgnd vpwr scs8hd_diode_2
XFILLER_6_108 vgnd vpwr scs8hd_decap_4
XFILLER_10_137 vpwr vgnd scs8hd_fill_2
XFILLER_12_22 vgnd vpwr scs8hd_decap_8
XFILLER_12_44 vpwr vgnd scs8hd_fill_2
XFILLER_18_215 vpwr vgnd scs8hd_fill_2
XANTENNA__108__C _122_/C vgnd vpwr scs8hd_diode_2
XFILLER_5_141 vpwr vgnd scs8hd_fill_2
XANTENNA__124__B _122_/X vgnd vpwr scs8hd_diode_2
Xmux_top_ipin_6.INVTX1_4_.scs8hd_inv_1 chanx_left_in[8] mux_top_ipin_6.INVTX1_4_.scs8hd_inv_1/Y
+ vgnd vpwr scs8hd_inv_1
XANTENNA__140__A chanx_right_in[8] vgnd vpwr scs8hd_diode_2
Xmux_top_ipin_0.tap_buf4_0_.scs8hd_inv_1 mux_top_ipin_0.tap_buf4_0_.scs8hd_inv_1/A
+ bottom_grid_pin_0_ vgnd vpwr scs8hd_inv_1
XANTENNA__050__A address[4] vgnd vpwr scs8hd_diode_2
XANTENNA_mux_top_ipin_4.mux_l2_in_0_.TGATE_2_.scs8hd_ebufn_2_TEB mem_top_ipin_4.LATCH_5_.latch/Q
+ vgnd vpwr scs8hd_diode_2
X_130_ _130_/HI _130_/LO vgnd vpwr scs8hd_conb_1
XFILLER_15_229 vgnd vpwr scs8hd_decap_4
XFILLER_23_98 vpwr vgnd scs8hd_fill_2
XFILLER_23_87 vpwr vgnd scs8hd_fill_2
XFILLER_23_76 vpwr vgnd scs8hd_fill_2
X_061_ _051_/B _075_/A _061_/Y vgnd vpwr scs8hd_nor2_4
XFILLER_2_199 vgnd vpwr scs8hd_decap_4
XFILLER_2_166 vpwr vgnd scs8hd_fill_2
XANTENNA__119__B _118_/B vgnd vpwr scs8hd_diode_2
XFILLER_0_47 vpwr vgnd scs8hd_fill_2
XFILLER_0_58 vgnd vpwr scs8hd_decap_4
XFILLER_20_232 vgnd vpwr scs8hd_fill_1
XANTENNA__045__A address[6] vgnd vpwr scs8hd_diode_2
XFILLER_18_32 vgnd vpwr scs8hd_decap_3
XFILLER_11_232 vgnd vpwr scs8hd_fill_1
X_113_ _120_/A _111_/B _113_/Y vgnd vpwr scs8hd_nor2_4
X_044_ enable _098_/C vgnd vpwr scs8hd_inv_8
Xmux_top_ipin_6.mux_l1_in_0_.TGATE_0_.scs8hd_ebufn_2 mux_top_ipin_6.INVTX1_0_.scs8hd_inv_1/Y
+ mem_top_ipin_6.LATCH_0_.latch/Q mux_top_ipin_6.mux_l1_in_0_.TGATE_2_.scs8hd_ebufn_2/Z
+ vgnd vpwr scs8hd_ebufn_2
XFILLER_20_55 vgnd vpwr scs8hd_decap_3
XFILLER_28_184 vgnd vpwr scs8hd_fill_1
XFILLER_6_68 vpwr vgnd scs8hd_fill_2
XFILLER_34_154 vgnd vpwr scs8hd_decap_12
XFILLER_25_143 vgnd vpwr scs8hd_decap_4
XFILLER_25_132 vgnd vpwr scs8hd_decap_8
XANTENNA_mem_bottom_ipin_0.LATCH_5_.latch_D data_in vgnd vpwr scs8hd_diode_2
Xmux_top_ipin_3.mux_l2_in_0_.TGATE_0_.scs8hd_ebufn_2 mux_top_ipin_3.mux_l2_in_0_.TGATE_0_.scs8hd_ebufn_2/A
+ mem_top_ipin_3.LATCH_3_.latch/Q mux_top_ipin_3.tap_buf4_0_.scs8hd_inv_1/A vgnd vpwr
+ scs8hd_ebufn_2
XFILLER_31_43 vpwr vgnd scs8hd_fill_2
XFILLER_16_110 vgnd vpwr scs8hd_decap_12
XPHY_193 vgnd vpwr scs8hd_tapvpwrvgnd_1
XFILLER_31_179 vpwr vgnd scs8hd_fill_2
XFILLER_31_135 vgnd vpwr scs8hd_decap_12
XPHY_182 vgnd vpwr scs8hd_tapvpwrvgnd_1
XPHY_171 vgnd vpwr scs8hd_tapvpwrvgnd_1
XPHY_160 vgnd vpwr scs8hd_tapvpwrvgnd_1
XANTENNA__127__B _122_/X vgnd vpwr scs8hd_diode_2
XFILLER_16_143 vgnd vpwr scs8hd_decap_8
XFILLER_16_154 vgnd vpwr scs8hd_decap_8
XANTENNA_mem_bottom_ipin_2.LATCH_1_.latch_D data_in vgnd vpwr scs8hd_diode_2
XANTENNA__143__A chanx_right_in[5] vgnd vpwr scs8hd_diode_2
XANTENNA_mux_top_ipin_6.mux_l2_in_0_.TGATE_1_.scs8hd_ebufn_2_TEB mem_top_ipin_6.LATCH_4_.latch/Q
+ vgnd vpwr scs8hd_diode_2
XANTENNA__053__A _051_/B vgnd vpwr scs8hd_diode_2
Xmem_top_ipin_0.LATCH_4_.latch data_in mem_top_ipin_0.LATCH_4_.latch/Q _124_/Y vgnd
+ vpwr scs8hd_lpflow_inputisolatch_1
XFILLER_9_117 vgnd vpwr scs8hd_decap_3
XFILLER_13_102 vpwr vgnd scs8hd_fill_2
XFILLER_13_113 vgnd vpwr scs8hd_decap_4
XFILLER_13_157 vgnd vpwr scs8hd_decap_3
XFILLER_13_179 vgnd vpwr scs8hd_fill_1
XANTENNA_mux_top_ipin_4.mux_l1_in_1_.TGATE_2_.scs8hd_ebufn_2_A mux_top_ipin_4.INVTX1_5_.scs8hd_inv_1/Y
+ vgnd vpwr scs8hd_diode_2
XFILLER_3_47 vpwr vgnd scs8hd_fill_2
XANTENNA_mem_top_ipin_6.LATCH_4_.latch_SLEEPB _093_/Y vgnd vpwr scs8hd_diode_2
XANTENNA__048__A address[1] vgnd vpwr scs8hd_diode_2
Xmux_bottom_ipin_2.mux_l1_in_0_.TGATE_2_.scs8hd_ebufn_2 mux_bottom_ipin_2.INVTX1_2_.scs8hd_inv_1/Y
+ mem_bottom_ipin_2.LATCH_2_.latch/Q mux_bottom_ipin_2.mux_l2_in_0_.TGATE_0_.scs8hd_ebufn_2/A
+ vgnd vpwr scs8hd_ebufn_2
XFILLER_5_6 vpwr vgnd scs8hd_fill_2
XFILLER_18_205 vgnd vpwr scs8hd_decap_8
Xmux_top_ipin_7.mux_l2_in_0_.TGATE_1_.scs8hd_ebufn_2 mux_top_ipin_7.mux_l1_in_1_.TGATE_0_.scs8hd_ebufn_2/Z
+ mem_top_ipin_7.LATCH_4_.latch/Q mux_top_ipin_7.tap_buf4_0_.scs8hd_inv_1/A vgnd vpwr
+ scs8hd_ebufn_2
XANTENNA_mux_top_ipin_1.mux_l2_in_0_.TGATE_1_.scs8hd_ebufn_2_TEB mem_top_ipin_1.LATCH_4_.latch/Q
+ vgnd vpwr scs8hd_diode_2
XFILLER_5_175 vpwr vgnd scs8hd_fill_2
XFILLER_5_197 vgnd vpwr scs8hd_decap_12
Xmux_top_ipin_3.INVTX1_0_.scs8hd_inv_1 chanx_left_in[1] mux_top_ipin_3.INVTX1_0_.scs8hd_inv_1/Y
+ vgnd vpwr scs8hd_inv_1
XANTENNA__050__B address[3] vgnd vpwr scs8hd_diode_2
XFILLER_23_44 vpwr vgnd scs8hd_fill_2
XFILLER_23_11 vgnd vpwr scs8hd_decap_3
XFILLER_3_3 vgnd vpwr scs8hd_decap_4
X_060_ address[1] address[2] address[0] _075_/A vgnd vpwr scs8hd_or3_4
XFILLER_2_145 vgnd vpwr scs8hd_decap_6
XFILLER_2_178 vpwr vgnd scs8hd_fill_2
XFILLER_9_13 vpwr vgnd scs8hd_fill_2
XFILLER_9_35 vpwr vgnd scs8hd_fill_2
XFILLER_9_57 vgnd vpwr scs8hd_decap_4
XANTENNA__151__A chanx_left_in[6] vgnd vpwr scs8hd_diode_2
XANTENNA__061__A _051_/B vgnd vpwr scs8hd_diode_2
Xmux_top_ipin_4.INVTX1_4_.scs8hd_inv_1 chanx_left_in[7] mux_top_ipin_4.INVTX1_4_.scs8hd_inv_1/Y
+ vgnd vpwr scs8hd_inv_1
Xmem_bottom_ipin_0.LATCH_4_.latch data_in mem_bottom_ipin_0.LATCH_4_.latch/Q _110_/Y
+ vgnd vpwr scs8hd_lpflow_inputisolatch_1
XANTENNA_mux_top_ipin_0.mux_l1_in_1_.TGATE_0_.scs8hd_ebufn_2_A mux_top_ipin_0.INVTX1_3_.scs8hd_inv_1/Y
+ vgnd vpwr scs8hd_diode_2
XFILLER_18_11 vgnd vpwr scs8hd_decap_3
XFILLER_18_44 vpwr vgnd scs8hd_fill_2
XFILLER_34_32 vgnd vpwr scs8hd_decap_12
XFILLER_18_88 vgnd vpwr scs8hd_decap_4
XFILLER_34_76 vgnd vpwr scs8hd_fill_1
X_043_ address[2] _043_/Y vgnd vpwr scs8hd_inv_8
XFILLER_11_200 vpwr vgnd scs8hd_fill_2
X_112_ _119_/A _111_/B _112_/Y vgnd vpwr scs8hd_nor2_4
XANTENNA__146__A chanx_right_in[2] vgnd vpwr scs8hd_diode_2
XANTENNA_mux_top_ipin_5.mux_l2_in_0_.TGATE_2_.scs8hd_ebufn_2_A _137_/HI vgnd vpwr
+ scs8hd_diode_2
XANTENNA__056__A _056_/A vgnd vpwr scs8hd_diode_2
Xmux_top_ipin_3.mux_l1_in_1_.TGATE_1_.scs8hd_ebufn_2 mux_top_ipin_3.INVTX1_4_.scs8hd_inv_1/Y
+ mem_top_ipin_3.LATCH_1_.latch/Q mux_top_ipin_3.mux_l2_in_0_.TGATE_1_.scs8hd_ebufn_2/A
+ vgnd vpwr scs8hd_ebufn_2
XFILLER_4_218 vgnd vpwr scs8hd_decap_12
XANTENNA_mem_top_ipin_4.LATCH_5_.latch_SLEEPB _077_/Y vgnd vpwr scs8hd_diode_2
XFILLER_20_23 vgnd vpwr scs8hd_decap_8
XFILLER_28_152 vgnd vpwr scs8hd_fill_1
XFILLER_28_196 vpwr vgnd scs8hd_fill_2
XANTENNA_mux_top_ipin_1.INVTX1_5_.scs8hd_inv_1_A chanx_right_in[8] vgnd vpwr scs8hd_diode_2
XFILLER_34_166 vgnd vpwr scs8hd_decap_12
Xmem_top_ipin_1.LATCH_0_.latch data_in mem_top_ipin_1.LATCH_0_.latch/Q _061_/Y vgnd
+ vpwr scs8hd_lpflow_inputisolatch_1
XANTENNA_mux_top_ipin_1.mux_l1_in_0_.TGATE_2_.scs8hd_ebufn_2_A mux_top_ipin_1.INVTX1_2_.scs8hd_inv_1/Y
+ vgnd vpwr scs8hd_diode_2
XANTENNA_mux_top_ipin_3.mux_l2_in_0_.TGATE_0_.scs8hd_ebufn_2_TEB mem_top_ipin_3.LATCH_3_.latch/Q
+ vgnd vpwr scs8hd_diode_2
XFILLER_0_232 vgnd vpwr scs8hd_fill_1
XFILLER_16_122 vpwr vgnd scs8hd_fill_2
XPHY_194 vgnd vpwr scs8hd_tapvpwrvgnd_1
XFILLER_31_147 vgnd vpwr scs8hd_decap_12
XPHY_183 vgnd vpwr scs8hd_tapvpwrvgnd_1
XPHY_172 vgnd vpwr scs8hd_tapvpwrvgnd_1
XPHY_161 vgnd vpwr scs8hd_tapvpwrvgnd_1
XPHY_150 vgnd vpwr scs8hd_tapvpwrvgnd_1
Xmem_top_ipin_3.LATCH_3_.latch data_in mem_top_ipin_3.LATCH_3_.latch/Q _072_/Y vgnd
+ vpwr scs8hd_lpflow_inputisolatch_1
XANTENNA__053__B _117_/A vgnd vpwr scs8hd_diode_2
XFILLER_26_66 vgnd vpwr scs8hd_decap_3
XFILLER_26_88 vpwr vgnd scs8hd_fill_2
Xmux_top_ipin_7.mux_l1_in_1_.TGATE_2_.scs8hd_ebufn_2 mux_top_ipin_7.INVTX1_5_.scs8hd_inv_1/Y
+ mem_top_ipin_7.LATCH_2_.latch/Q mux_top_ipin_7.mux_l1_in_1_.TGATE_0_.scs8hd_ebufn_2/Z
+ vgnd vpwr scs8hd_ebufn_2
XANTENNA_mux_top_ipin_1.mux_l2_in_0_.TGATE_0_.scs8hd_ebufn_2_A mux_top_ipin_1.mux_l2_in_0_.TGATE_0_.scs8hd_ebufn_2/A
+ vgnd vpwr scs8hd_diode_2
XANTENNA__154__A chanx_left_in[3] vgnd vpwr scs8hd_diode_2
XFILLER_8_184 vgnd vpwr scs8hd_decap_3
XANTENNA_mux_bottom_ipin_2.mux_l1_in_0_.TGATE_1_.scs8hd_ebufn_2_A mux_bottom_ipin_2.INVTX1_1_.scs8hd_inv_1/Y
+ vgnd vpwr scs8hd_diode_2
XANTENNA__048__B _043_/Y vgnd vpwr scs8hd_diode_2
XANTENNA__064__A _117_/A vgnd vpwr scs8hd_diode_2
XFILLER_12_57 vpwr vgnd scs8hd_fill_2
XFILLER_33_209 vpwr vgnd scs8hd_fill_2
Xmem_bottom_ipin_1.LATCH_0_.latch data_in _041_/A _107_/Y vgnd vpwr scs8hd_lpflow_inputisolatch_1
XFILLER_5_154 vpwr vgnd scs8hd_fill_2
XANTENNA__149__A chanx_left_in[8] vgnd vpwr scs8hd_diode_2
Xmux_top_ipin_5.mux_l1_in_0_.TGATE_0_.scs8hd_ebufn_2 mux_top_ipin_5.INVTX1_0_.scs8hd_inv_1/Y
+ mem_top_ipin_5.LATCH_0_.latch/Q mux_top_ipin_5.mux_l1_in_0_.TGATE_2_.scs8hd_ebufn_2/Z
+ vgnd vpwr scs8hd_ebufn_2
XANTENNA__050__C _069_/C vgnd vpwr scs8hd_diode_2
XANTENNA__059__A _051_/B vgnd vpwr scs8hd_diode_2
XFILLER_2_124 vgnd vpwr scs8hd_fill_1
XFILLER_2_102 vpwr vgnd scs8hd_fill_2
XFILLER_0_27 vpwr vgnd scs8hd_fill_2
XFILLER_9_25 vgnd vpwr scs8hd_fill_1
XFILLER_14_231 vpwr vgnd scs8hd_fill_2
XFILLER_29_3 vpwr vgnd scs8hd_fill_2
Xmux_top_ipin_2.mux_l2_in_0_.TGATE_0_.scs8hd_ebufn_2 mux_top_ipin_2.mux_l1_in_0_.TGATE_1_.scs8hd_ebufn_2/Z
+ mem_top_ipin_2.LATCH_3_.latch/Q mux_top_ipin_2.tap_buf4_0_.scs8hd_inv_1/A vgnd vpwr
+ scs8hd_ebufn_2
Xmux_bottom_ipin_2.INVTX1_0_.scs8hd_inv_1 chanx_left_in[1] mux_bottom_ipin_2.INVTX1_0_.scs8hd_inv_1/Y
+ vgnd vpwr scs8hd_inv_1
XANTENNA__061__B _075_/A vgnd vpwr scs8hd_diode_2
XFILLER_18_23 vgnd vpwr scs8hd_decap_8
XFILLER_34_44 vgnd vpwr scs8hd_decap_12
X_042_ address[1] _056_/A vgnd vpwr scs8hd_inv_8
Xmux_top_ipin_1.INVTX1_0_.scs8hd_inv_1 chanx_left_in[3] mux_top_ipin_1.INVTX1_0_.scs8hd_inv_1/Y
+ vgnd vpwr scs8hd_inv_1
X_111_ _118_/A _111_/B _111_/Y vgnd vpwr scs8hd_nor2_4
XFILLER_1_92 vpwr vgnd scs8hd_fill_2
XANTENNA__072__A _118_/A vgnd vpwr scs8hd_diode_2
XANTENNA_mux_top_ipin_3.INVTX1_3_.scs8hd_inv_1_A chanx_right_in[5] vgnd vpwr scs8hd_diode_2
XFILLER_4_208 vgnd vpwr scs8hd_decap_3
XANTENNA__056__B address[2] vgnd vpwr scs8hd_diode_2
XFILLER_20_13 vgnd vpwr scs8hd_fill_1
XFILLER_29_33 vpwr vgnd scs8hd_fill_2
XFILLER_29_99 vpwr vgnd scs8hd_fill_2
XFILLER_29_77 vgnd vpwr scs8hd_decap_4
XFILLER_29_55 vpwr vgnd scs8hd_fill_2
Xmux_top_ipin_2.INVTX1_4_.scs8hd_inv_1 chanx_left_in[5] mux_top_ipin_2.INVTX1_4_.scs8hd_inv_1/Y
+ vgnd vpwr scs8hd_inv_1
XANTENNA_mux_top_ipin_7.INVTX1_4_.scs8hd_inv_1_A chanx_left_in[5] vgnd vpwr scs8hd_diode_2
XFILLER_6_15 vgnd vpwr scs8hd_decap_3
XFILLER_20_7 vgnd vpwr scs8hd_decap_6
XFILLER_34_178 vgnd vpwr scs8hd_decap_8
XANTENNA__157__A chanx_left_in[0] vgnd vpwr scs8hd_diode_2
XFILLER_19_153 vgnd vpwr scs8hd_decap_6
XFILLER_19_175 vpwr vgnd scs8hd_fill_2
XANTENNA__067__A _120_/A vgnd vpwr scs8hd_diode_2
Xmem_top_ipin_6.LATCH_2_.latch data_in mem_top_ipin_6.LATCH_2_.latch/Q _095_/Y vgnd
+ vpwr scs8hd_lpflow_inputisolatch_1
XFILLER_15_57 vpwr vgnd scs8hd_fill_2
XFILLER_31_67 vpwr vgnd scs8hd_fill_2
XFILLER_31_23 vgnd vpwr scs8hd_decap_3
Xmux_top_ipin_6.mux_l2_in_0_.TGATE_1_.scs8hd_ebufn_2 mux_top_ipin_6.mux_l1_in_1_.TGATE_2_.scs8hd_ebufn_2/Z
+ mem_top_ipin_6.LATCH_4_.latch/Q mux_top_ipin_6.tap_buf4_0_.scs8hd_inv_1/A vgnd vpwr
+ scs8hd_ebufn_2
XFILLER_0_222 vpwr vgnd scs8hd_fill_2
XFILLER_0_200 vpwr vgnd scs8hd_fill_2
XFILLER_31_115 vgnd vpwr scs8hd_decap_6
XPHY_195 vgnd vpwr scs8hd_tapvpwrvgnd_1
XFILLER_31_159 vgnd vpwr scs8hd_decap_4
XPHY_184 vgnd vpwr scs8hd_tapvpwrvgnd_1
XPHY_173 vgnd vpwr scs8hd_tapvpwrvgnd_1
XPHY_162 vgnd vpwr scs8hd_tapvpwrvgnd_1
XPHY_140 vgnd vpwr scs8hd_tapvpwrvgnd_1
XPHY_151 vgnd vpwr scs8hd_tapvpwrvgnd_1
XFILLER_11_3 vgnd vpwr scs8hd_decap_4
XANTENNA_mux_bottom_ipin_1.mux_l2_in_0_.TGATE_1_.scs8hd_ebufn_2_TEB _040_/Y vgnd vpwr
+ scs8hd_diode_2
XFILLER_22_104 vpwr vgnd scs8hd_fill_2
XFILLER_22_148 vgnd vpwr scs8hd_decap_4
XFILLER_7_91 vpwr vgnd scs8hd_fill_2
XFILLER_26_45 vgnd vpwr scs8hd_decap_12
XFILLER_3_38 vgnd vpwr scs8hd_decap_3
XANTENNA_mux_top_ipin_5.mux_l1_in_1_.TGATE_2_.scs8hd_ebufn_2_A mux_top_ipin_5.INVTX1_5_.scs8hd_inv_1/Y
+ vgnd vpwr scs8hd_diode_2
XFILLER_8_130 vpwr vgnd scs8hd_fill_2
XFILLER_12_170 vgnd vpwr scs8hd_decap_12
XANTENNA_mem_top_ipin_3.LATCH_0_.latch_SLEEPB _075_/Y vgnd vpwr scs8hd_diode_2
XANTENNA_mem_top_ipin_1.LATCH_4_.latch_D data_in vgnd vpwr scs8hd_diode_2
XANTENNA__048__C _058_/C vgnd vpwr scs8hd_diode_2
XANTENNA__064__B _062_/X vgnd vpwr scs8hd_diode_2
XANTENNA_mem_top_ipin_2.LATCH_2_.latch_D data_in vgnd vpwr scs8hd_diode_2
XFILLER_10_107 vgnd vpwr scs8hd_fill_1
XANTENNA__080__A _119_/A vgnd vpwr scs8hd_diode_2
XANTENNA_mem_top_ipin_3.LATCH_0_.latch_D data_in vgnd vpwr scs8hd_diode_2
XANTENNA_mem_bottom_ipin_2.LATCH_4_.latch_SLEEPB _117_/Y vgnd vpwr scs8hd_diode_2
Xmux_top_ipin_2.mux_l1_in_1_.TGATE_1_.scs8hd_ebufn_2 mux_top_ipin_2.INVTX1_4_.scs8hd_inv_1/Y
+ mem_top_ipin_2.LATCH_1_.latch/Q mux_top_ipin_2.mux_l1_in_1_.TGATE_2_.scs8hd_ebufn_2/Z
+ vgnd vpwr scs8hd_ebufn_2
XFILLER_23_221 vgnd vpwr scs8hd_decap_12
XANTENNA__059__B _120_/A vgnd vpwr scs8hd_diode_2
XANTENNA__075__A _075_/A vgnd vpwr scs8hd_diode_2
XFILLER_23_57 vpwr vgnd scs8hd_fill_2
XFILLER_9_48 vgnd vpwr scs8hd_decap_3
XFILLER_20_224 vgnd vpwr scs8hd_decap_8
XANTENNA_mux_top_ipin_1.INVTX1_0_.scs8hd_inv_1_A chanx_left_in[3] vgnd vpwr scs8hd_diode_2
XANTENNA_mux_top_ipin_1.mux_l1_in_1_.TGATE_0_.scs8hd_ebufn_2_A mux_top_ipin_1.INVTX1_3_.scs8hd_inv_1/Y
+ vgnd vpwr scs8hd_diode_2
XFILLER_34_56 vgnd vpwr scs8hd_decap_12
X_110_ _117_/A _111_/B _110_/Y vgnd vpwr scs8hd_nor2_4
X_041_ _041_/A _041_/Y vgnd vpwr scs8hd_inv_8
XANTENNA_mux_top_ipin_5.INVTX1_1_.scs8hd_inv_1_A chanx_right_in[3] vgnd vpwr scs8hd_diode_2
XANTENNA_mux_bottom_ipin_0.mux_l2_in_0_.TGATE_2_.scs8hd_ebufn_2_A _129_/HI vgnd vpwr
+ scs8hd_diode_2
XANTENNA_mem_top_ipin_6.LATCH_4_.latch_D data_in vgnd vpwr scs8hd_diode_2
XANTENNA_mux_top_ipin_6.mux_l2_in_0_.TGATE_2_.scs8hd_ebufn_2_A _138_/HI vgnd vpwr
+ scs8hd_diode_2
XANTENNA_mem_top_ipin_7.LATCH_2_.latch_D data_in vgnd vpwr scs8hd_diode_2
XANTENNA__056__C address[0] vgnd vpwr scs8hd_diode_2
XANTENNA__072__B _072_/B vgnd vpwr scs8hd_diode_2
Xmux_top_ipin_6.mux_l1_in_1_.TGATE_2_.scs8hd_ebufn_2 mux_top_ipin_6.INVTX1_5_.scs8hd_inv_1/Y
+ mem_top_ipin_6.LATCH_2_.latch/Q mux_top_ipin_6.mux_l1_in_1_.TGATE_2_.scs8hd_ebufn_2/Z
+ vgnd vpwr scs8hd_ebufn_2
XANTENNA_mem_top_ipin_1.LATCH_1_.latch_SLEEPB _059_/Y vgnd vpwr scs8hd_diode_2
XFILLER_20_47 vgnd vpwr scs8hd_decap_8
XFILLER_20_69 vpwr vgnd scs8hd_fill_2
XFILLER_28_176 vgnd vpwr scs8hd_decap_8
XFILLER_28_165 vgnd vpwr scs8hd_decap_8
Xmux_bottom_ipin_0.INVTX1_0_.scs8hd_inv_1 chanx_left_in[0] mux_bottom_ipin_0.INVTX1_0_.scs8hd_inv_1/Y
+ vgnd vpwr scs8hd_inv_1
XFILLER_3_231 vpwr vgnd scs8hd_fill_2
XFILLER_13_7 vgnd vpwr scs8hd_fill_1
XFILLER_19_132 vpwr vgnd scs8hd_fill_2
XFILLER_19_165 vgnd vpwr scs8hd_fill_1
XANTENNA_mem_bottom_ipin_0.LATCH_5_.latch_SLEEPB _109_/Y vgnd vpwr scs8hd_diode_2
XANTENNA_mux_top_ipin_6.mux_l1_in_0_.TGATE_2_.scs8hd_ebufn_2_TEB mem_top_ipin_6.LATCH_2_.latch/Q
+ vgnd vpwr scs8hd_diode_2
XFILLER_19_187 vpwr vgnd scs8hd_fill_2
XANTENNA_mux_top_ipin_2.mux_l1_in_0_.TGATE_2_.scs8hd_ebufn_2_A mux_top_ipin_2.INVTX1_2_.scs8hd_inv_1/Y
+ vgnd vpwr scs8hd_diode_2
XFILLER_25_179 vpwr vgnd scs8hd_fill_2
XFILLER_25_168 vgnd vpwr scs8hd_decap_4
XANTENNA__067__B _062_/X vgnd vpwr scs8hd_diode_2
XANTENNA__083__A _083_/A vgnd vpwr scs8hd_diode_2
XFILLER_15_36 vpwr vgnd scs8hd_fill_2
XFILLER_0_212 vgnd vpwr scs8hd_decap_4
XPHY_130 vgnd vpwr scs8hd_tapvpwrvgnd_1
XFILLER_16_135 vpwr vgnd scs8hd_fill_2
XPHY_141 vgnd vpwr scs8hd_tapvpwrvgnd_1
Xmux_top_ipin_4.mux_l1_in_0_.TGATE_0_.scs8hd_ebufn_2 mux_top_ipin_4.INVTX1_0_.scs8hd_inv_1/Y
+ mem_top_ipin_4.LATCH_0_.latch/Q mux_top_ipin_4.mux_l1_in_0_.TGATE_0_.scs8hd_ebufn_2/Z
+ vgnd vpwr scs8hd_ebufn_2
XPHY_152 vgnd vpwr scs8hd_tapvpwrvgnd_1
XPHY_196 vgnd vpwr scs8hd_tapvpwrvgnd_1
XPHY_185 vgnd vpwr scs8hd_tapvpwrvgnd_1
XPHY_174 vgnd vpwr scs8hd_tapvpwrvgnd_1
XPHY_163 vgnd vpwr scs8hd_tapvpwrvgnd_1
XANTENNA_mux_top_ipin_0.tap_buf4_0_.scs8hd_inv_1_A mux_top_ipin_0.tap_buf4_0_.scs8hd_inv_1/A
+ vgnd vpwr scs8hd_diode_2
Xmux_top_ipin_0.INVTX1_4_.scs8hd_inv_1 chanx_left_in[7] mux_top_ipin_0.INVTX1_4_.scs8hd_inv_1/Y
+ vgnd vpwr scs8hd_inv_1
XFILLER_26_57 vgnd vpwr scs8hd_fill_1
XANTENNA__078__A _117_/A vgnd vpwr scs8hd_diode_2
XFILLER_13_138 vpwr vgnd scs8hd_fill_2
XFILLER_13_149 vpwr vgnd scs8hd_fill_2
XANTENNA_mux_top_ipin_1.mux_l1_in_0_.TGATE_2_.scs8hd_ebufn_2_TEB mem_top_ipin_1.LATCH_2_.latch/Q
+ vgnd vpwr scs8hd_diode_2
XFILLER_21_193 vpwr vgnd scs8hd_fill_2
Xmux_top_ipin_1.mux_l2_in_0_.TGATE_0_.scs8hd_ebufn_2 mux_top_ipin_1.mux_l2_in_0_.TGATE_0_.scs8hd_ebufn_2/A
+ mem_top_ipin_1.LATCH_3_.latch/Q mux_top_ipin_1.tap_buf4_0_.scs8hd_inv_1/A vgnd vpwr
+ scs8hd_ebufn_2
XANTENNA_mux_top_ipin_2.mux_l2_in_0_.TGATE_0_.scs8hd_ebufn_2_A mux_top_ipin_2.mux_l1_in_0_.TGATE_1_.scs8hd_ebufn_2/Z
+ vgnd vpwr scs8hd_diode_2
XFILLER_12_182 vgnd vpwr scs8hd_fill_1
XFILLER_35_230 vgnd vpwr scs8hd_decap_3
XFILLER_27_219 vpwr vgnd scs8hd_fill_2
Xmux_top_ipin_6.INVTX1_1_.scs8hd_inv_1 chanx_right_in[0] mux_top_ipin_6.INVTX1_1_.scs8hd_inv_1/Y
+ vgnd vpwr scs8hd_inv_1
XFILLER_10_119 vgnd vpwr scs8hd_decap_3
XANTENNA__080__B _080_/B vgnd vpwr scs8hd_diode_2
XFILLER_18_219 vgnd vpwr scs8hd_decap_12
Xmux_top_ipin_3.tap_buf4_0_.scs8hd_inv_1 mux_top_ipin_3.tap_buf4_0_.scs8hd_inv_1/A
+ bottom_grid_pin_6_ vgnd vpwr scs8hd_inv_1
XFILLER_5_112 vpwr vgnd scs8hd_fill_2
XANTENNA_mux_top_ipin_4.mux_l1_in_1_.TGATE_2_.scs8hd_ebufn_2_TEB mem_top_ipin_4.LATCH_2_.latch/Q
+ vgnd vpwr scs8hd_diode_2
XFILLER_4_60 vgnd vpwr scs8hd_fill_1
XANTENNA__075__B _072_/B vgnd vpwr scs8hd_diode_2
Xmux_top_ipin_7.INVTX1_5_.scs8hd_inv_1 chanx_right_in[5] mux_top_ipin_7.INVTX1_5_.scs8hd_inv_1/Y
+ vgnd vpwr scs8hd_inv_1
XANTENNA__091__A address[4] vgnd vpwr scs8hd_diode_2
XFILLER_14_200 vpwr vgnd scs8hd_fill_2
XFILLER_13_91 vpwr vgnd scs8hd_fill_2
XFILLER_1_170 vpwr vgnd scs8hd_fill_2
Xmux_bottom_ipin_0.mux_l1_in_0_.TGATE_2_.scs8hd_ebufn_2 mux_bottom_ipin_0.INVTX1_2_.scs8hd_inv_1/Y
+ mem_bottom_ipin_0.LATCH_2_.latch/Q mux_bottom_ipin_0.mux_l2_in_0_.TGATE_0_.scs8hd_ebufn_2/A
+ vgnd vpwr scs8hd_ebufn_2
Xmux_top_ipin_5.mux_l2_in_0_.TGATE_1_.scs8hd_ebufn_2 mux_top_ipin_5.mux_l1_in_1_.TGATE_2_.scs8hd_ebufn_2/Z
+ mem_top_ipin_5.LATCH_4_.latch/Q mux_top_ipin_5.tap_buf4_0_.scs8hd_inv_1/A vgnd vpwr
+ scs8hd_ebufn_2
XFILLER_18_69 vpwr vgnd scs8hd_fill_2
XFILLER_34_68 vgnd vpwr scs8hd_decap_8
XFILLER_7_207 vgnd vpwr scs8hd_fill_1
XANTENNA__086__A _117_/A vgnd vpwr scs8hd_diode_2
XFILLER_1_3 vgnd vpwr scs8hd_decap_12
X_040_ _040_/A _040_/Y vgnd vpwr scs8hd_inv_8
XFILLER_34_3 vgnd vpwr scs8hd_decap_12
XANTENNA_mem_bottom_ipin_2.LATCH_4_.latch_D data_in vgnd vpwr scs8hd_diode_2
XFILLER_1_50 vpwr vgnd scs8hd_fill_2
XANTENNA_mux_top_ipin_3.mux_l1_in_0_.TGATE_1_.scs8hd_ebufn_2_TEB mem_top_ipin_3.LATCH_1_.latch/Q
+ vgnd vpwr scs8hd_diode_2
XFILLER_28_133 vgnd vpwr scs8hd_decap_3
XFILLER_6_28 vgnd vpwr scs8hd_decap_3
XFILLER_25_114 vpwr vgnd scs8hd_fill_2
XANTENNA_mux_bottom_ipin_2.INVTX1_5_.scs8hd_inv_1_A chanx_right_in[6] vgnd vpwr scs8hd_diode_2
XFILLER_31_47 vpwr vgnd scs8hd_fill_2
XANTENNA__083__B address[5] vgnd vpwr scs8hd_diode_2
XPHY_175 vgnd vpwr scs8hd_tapvpwrvgnd_1
XPHY_164 vgnd vpwr scs8hd_tapvpwrvgnd_1
XFILLER_24_191 vpwr vgnd scs8hd_fill_2
XANTENNA_mux_top_ipin_6.mux_l1_in_1_.TGATE_1_.scs8hd_ebufn_2_TEB mem_top_ipin_6.LATCH_1_.latch/Q
+ vgnd vpwr scs8hd_diode_2
XPHY_120 vgnd vpwr scs8hd_tapvpwrvgnd_1
XPHY_131 vgnd vpwr scs8hd_tapvpwrvgnd_1
XPHY_142 vgnd vpwr scs8hd_tapvpwrvgnd_1
XPHY_153 vgnd vpwr scs8hd_tapvpwrvgnd_1
XPHY_197 vgnd vpwr scs8hd_tapvpwrvgnd_1
XPHY_186 vgnd vpwr scs8hd_tapvpwrvgnd_1
Xmux_top_ipin_1.mux_l1_in_1_.TGATE_1_.scs8hd_ebufn_2 mux_top_ipin_1.INVTX1_4_.scs8hd_inv_1/Y
+ mem_top_ipin_1.LATCH_1_.latch/Q mux_top_ipin_1.mux_l1_in_1_.TGATE_2_.scs8hd_ebufn_2/Z
+ vgnd vpwr scs8hd_ebufn_2
XPHY_0 vgnd vpwr scs8hd_decap_3
XFILLER_15_180 vgnd vpwr scs8hd_fill_1
XFILLER_7_60 vgnd vpwr scs8hd_fill_1
XFILLER_7_71 vpwr vgnd scs8hd_fill_2
XANTENNA__078__B _080_/B vgnd vpwr scs8hd_diode_2
XANTENNA__094__A _118_/A vgnd vpwr scs8hd_diode_2
XFILLER_13_106 vpwr vgnd scs8hd_fill_2
XFILLER_13_117 vgnd vpwr scs8hd_fill_1
XANTENNA_mem_top_ipin_6.LATCH_1_.latch_SLEEPB _096_/Y vgnd vpwr scs8hd_diode_2
Xmem_top_ipin_2.LATCH_2_.latch data_in mem_top_ipin_2.LATCH_2_.latch/Q _066_/Y vgnd
+ vpwr scs8hd_lpflow_inputisolatch_1
XANTENNA_mux_top_ipin_6.mux_l1_in_1_.TGATE_2_.scs8hd_ebufn_2_A mux_top_ipin_6.INVTX1_5_.scs8hd_inv_1/Y
+ vgnd vpwr scs8hd_diode_2
XANTENNA_mux_bottom_ipin_0.mux_l1_in_1_.TGATE_2_.scs8hd_ebufn_2_A mux_bottom_ipin_0.INVTX1_5_.scs8hd_inv_1/Y
+ vgnd vpwr scs8hd_diode_2
XFILLER_12_194 vpwr vgnd scs8hd_fill_2
XFILLER_8_165 vpwr vgnd scs8hd_fill_2
XFILLER_8_176 vgnd vpwr scs8hd_decap_8
XFILLER_8_198 vpwr vgnd scs8hd_fill_2
XANTENNA_mux_top_ipin_1.mux_l1_in_1_.TGATE_1_.scs8hd_ebufn_2_TEB mem_top_ipin_1.LATCH_1_.latch/Q
+ vgnd vpwr scs8hd_diode_2
XFILLER_12_38 vgnd vpwr scs8hd_decap_4
XANTENNA__089__A _120_/A vgnd vpwr scs8hd_diode_2
Xmem_top_ipin_4.LATCH_5_.latch data_in mem_top_ipin_4.LATCH_5_.latch/Q _077_/Y vgnd
+ vpwr scs8hd_lpflow_inputisolatch_1
XFILLER_5_179 vpwr vgnd scs8hd_fill_2
XFILLER_27_90 vpwr vgnd scs8hd_fill_2
Xmux_top_ipin_5.mux_l1_in_1_.TGATE_2_.scs8hd_ebufn_2 mux_top_ipin_5.INVTX1_5_.scs8hd_inv_1/Y
+ mem_top_ipin_5.LATCH_2_.latch/Q mux_top_ipin_5.mux_l1_in_1_.TGATE_2_.scs8hd_ebufn_2/Z
+ vgnd vpwr scs8hd_ebufn_2