* NGSPICE file created from cbx_1__2_.ext - technology: sky130A

* Black-box entry subcircuit for sky130_fd_sc_hd__diode_2 abstract view
.subckt sky130_fd_sc_hd__diode_2 DIODE VGND VNB VPB VPWR
.ends

* Black-box entry subcircuit for sky130_fd_sc_hd__fill_2 abstract view
.subckt sky130_fd_sc_hd__fill_2 VGND VNB VPB VPWR
.ends

* Black-box entry subcircuit for sky130_fd_sc_hd__decap_6 abstract view
.subckt sky130_fd_sc_hd__decap_6 VGND VNB VPB VPWR
.ends

* Black-box entry subcircuit for sky130_fd_sc_hd__decap_12 abstract view
.subckt sky130_fd_sc_hd__decap_12 VGND VNB VPB VPWR
.ends

* Black-box entry subcircuit for sky130_fd_sc_hd__decap_3 abstract view
.subckt sky130_fd_sc_hd__decap_3 VGND VNB VPB VPWR
.ends

* Black-box entry subcircuit for sky130_fd_sc_hd__decap_8 abstract view
.subckt sky130_fd_sc_hd__decap_8 VGND VNB VPB VPWR
.ends

* Black-box entry subcircuit for sky130_fd_sc_hd__decap_4 abstract view
.subckt sky130_fd_sc_hd__decap_4 VGND VNB VPB VPWR
.ends

* Black-box entry subcircuit for sky130_fd_sc_hd__mux2_1 abstract view
.subckt sky130_fd_sc_hd__mux2_1 A0 A1 S X VGND VNB VPB VPWR
.ends

* Black-box entry subcircuit for sky130_fd_sc_hd__buf_2 abstract view
.subckt sky130_fd_sc_hd__buf_2 A X VGND VNB VPB VPWR
.ends

* Black-box entry subcircuit for sky130_fd_sc_hd__fill_1 abstract view
.subckt sky130_fd_sc_hd__fill_1 VGND VNB VPB VPWR
.ends

* Black-box entry subcircuit for sky130_fd_sc_hd__clkbuf_1 abstract view
.subckt sky130_fd_sc_hd__clkbuf_1 A X VGND VNB VPB VPWR
.ends

* Black-box entry subcircuit for sky130_fd_sc_hd__tapvpwrvgnd_1 abstract view
.subckt sky130_fd_sc_hd__tapvpwrvgnd_1 VGND VPWR
.ends

* Black-box entry subcircuit for sky130_fd_sc_hd__dfxbp_1 abstract view
.subckt sky130_fd_sc_hd__dfxbp_1 D Q Q_N CLK VGND VNB VPB VPWR
.ends

* Black-box entry subcircuit for sky130_fd_sc_hd__buf_4 abstract view
.subckt sky130_fd_sc_hd__buf_4 A X VGND VNB VPB VPWR
.ends

* Black-box entry subcircuit for sky130_fd_sc_hd__conb_1 abstract view
.subckt sky130_fd_sc_hd__conb_1 HI LO VGND VNB VPB VPWR
.ends

* Black-box entry subcircuit for sky130_fd_sc_hd__clkbuf_16 abstract view
.subckt sky130_fd_sc_hd__clkbuf_16 A X VGND VNB VPB VPWR
.ends

.subckt cbx_1__2_ SC_IN_BOT SC_IN_TOP SC_OUT_BOT SC_OUT_TOP bottom_grid_pin_0_ bottom_grid_pin_10_
+ bottom_grid_pin_11_ bottom_grid_pin_12_ bottom_grid_pin_13_ bottom_grid_pin_14_
+ bottom_grid_pin_15_ bottom_grid_pin_1_ bottom_grid_pin_2_ bottom_grid_pin_3_ bottom_grid_pin_4_
+ bottom_grid_pin_5_ bottom_grid_pin_6_ bottom_grid_pin_7_ bottom_grid_pin_8_ bottom_grid_pin_9_
+ bottom_width_0_height_0__pin_0_ bottom_width_0_height_0__pin_1_lower bottom_width_0_height_0__pin_1_upper
+ ccff_head ccff_tail chanx_left_in[0] chanx_left_in[10] chanx_left_in[11] chanx_left_in[12]
+ chanx_left_in[13] chanx_left_in[14] chanx_left_in[15] chanx_left_in[16] chanx_left_in[17]
+ chanx_left_in[18] chanx_left_in[19] chanx_left_in[1] chanx_left_in[2] chanx_left_in[3]
+ chanx_left_in[4] chanx_left_in[5] chanx_left_in[6] chanx_left_in[7] chanx_left_in[8]
+ chanx_left_in[9] chanx_left_out[0] chanx_left_out[10] chanx_left_out[11] chanx_left_out[12]
+ chanx_left_out[13] chanx_left_out[14] chanx_left_out[15] chanx_left_out[16] chanx_left_out[17]
+ chanx_left_out[18] chanx_left_out[19] chanx_left_out[1] chanx_left_out[2] chanx_left_out[3]
+ chanx_left_out[4] chanx_left_out[5] chanx_left_out[6] chanx_left_out[7] chanx_left_out[8]
+ chanx_left_out[9] chanx_right_in[0] chanx_right_in[10] chanx_right_in[11] chanx_right_in[12]
+ chanx_right_in[13] chanx_right_in[14] chanx_right_in[15] chanx_right_in[16] chanx_right_in[17]
+ chanx_right_in[18] chanx_right_in[19] chanx_right_in[1] chanx_right_in[2] chanx_right_in[3]
+ chanx_right_in[4] chanx_right_in[5] chanx_right_in[6] chanx_right_in[7] chanx_right_in[8]
+ chanx_right_in[9] chanx_right_out[0] chanx_right_out[10] chanx_right_out[11] chanx_right_out[12]
+ chanx_right_out[13] chanx_right_out[14] chanx_right_out[15] chanx_right_out[16]
+ chanx_right_out[17] chanx_right_out[18] chanx_right_out[19] chanx_right_out[1] chanx_right_out[2]
+ chanx_right_out[3] chanx_right_out[4] chanx_right_out[5] chanx_right_out[6] chanx_right_out[7]
+ chanx_right_out[8] chanx_right_out[9] gfpga_pad_EMBEDDED_IO_SOC_DIR gfpga_pad_EMBEDDED_IO_SOC_IN
+ gfpga_pad_EMBEDDED_IO_SOC_OUT prog_clk top_grid_pin_0_ VPWR VGND
XANTENNA_mux_top_ipin_7.mux_l1_in_0__A1 chanx_left_in[0] VGND VGND VPWR VPWR sky130_fd_sc_hd__diode_2
XFILLER_7_7 VGND VGND VPWR VPWR sky130_fd_sc_hd__fill_2
XANTENNA_mux_top_ipin_0.mux_l2_in_1__S mux_top_ipin_0.mux_l2_in_0_/S VGND VGND VPWR
+ VPWR sky130_fd_sc_hd__diode_2
XFILLER_9_137 VGND VGND VPWR VPWR sky130_fd_sc_hd__decap_6
XFILLER_9_159 VGND VGND VPWR VPWR sky130_fd_sc_hd__fill_2
XFILLER_13_188 VGND VGND VPWR VPWR sky130_fd_sc_hd__fill_2
XFILLER_3_67 VGND VGND VPWR VPWR sky130_fd_sc_hd__fill_2
XANTENNA_mux_top_ipin_12.mux_l2_in_0__A1 mux_top_ipin_12.mux_l1_in_0_/X VGND VGND
+ VPWR VPWR sky130_fd_sc_hd__diode_2
XANTENNA_mem_top_ipin_14.sky130_fd_sc_hd__dfxbp_1_3__D mux_top_ipin_14.mux_l3_in_0_/S
+ VGND VGND VPWR VPWR sky130_fd_sc_hd__diode_2
XANTENNA_mem_top_ipin_4.sky130_fd_sc_hd__dfxbp_1_3__D mux_top_ipin_4.mux_l3_in_1_/S
+ VGND VGND VPWR VPWR sky130_fd_sc_hd__diode_2
XFILLER_35_280 VGND VGND VPWR VPWR sky130_fd_sc_hd__decap_12
XFILLER_27_258 VGND VGND VPWR VPWR sky130_fd_sc_hd__decap_12
XFILLER_27_236 VGND VGND VPWR VPWR sky130_fd_sc_hd__fill_2
XFILLER_27_203 VGND VGND VPWR VPWR sky130_fd_sc_hd__fill_2
XFILLER_6_129 VGND VGND VPWR VPWR sky130_fd_sc_hd__decap_3
XFILLER_10_103 VGND VGND VPWR VPWR sky130_fd_sc_hd__decap_8
XFILLER_10_147 VGND VGND VPWR VPWR sky130_fd_sc_hd__decap_6
XFILLER_12_32 VGND VGND VPWR VPWR sky130_fd_sc_hd__decap_4
XFILLER_18_247 VGND VGND VPWR VPWR sky130_fd_sc_hd__decap_4
XFILLER_33_228 VGND VGND VPWR VPWR sky130_fd_sc_hd__fill_2
Xmux_top_ipin_13.mux_l3_in_0_ mux_top_ipin_13.mux_l2_in_1_/X mux_top_ipin_13.mux_l2_in_0_/X
+ mux_top_ipin_13.mux_l3_in_1_/S mux_top_ipin_13.mux_l3_in_0_/X VGND VGND VPWR VPWR
+ sky130_fd_sc_hd__mux2_1
XANTENNA_mem_top_ipin_3.sky130_fd_sc_hd__dfxbp_1_0__CLK clkbuf_3_1_0_prog_clk/X VGND
+ VGND VPWR VPWR sky130_fd_sc_hd__diode_2
XFILLER_5_151 VGND VGND VPWR VPWR sky130_fd_sc_hd__decap_4
XFILLER_5_184 VGND VGND VPWR VPWR sky130_fd_sc_hd__decap_8
XFILLER_5_195 VGND VGND VPWR VPWR sky130_fd_sc_hd__fill_2
X_66_ chanx_left_in[12] chanx_right_out[12] VGND VGND VPWR VPWR sky130_fd_sc_hd__buf_2
XFILLER_17_291 VGND VGND VPWR VPWR sky130_fd_sc_hd__decap_8
XFILLER_32_272 VGND VGND VPWR VPWR sky130_fd_sc_hd__decap_3
XANTENNA_mux_top_ipin_10.mux_l2_in_2__A1 chanx_right_in[7] VGND VGND VPWR VPWR sky130_fd_sc_hd__diode_2
Xmux_top_ipin_6.mux_l2_in_0_ chanx_left_in[3] mux_top_ipin_6.mux_l1_in_0_/X mux_top_ipin_6.mux_l2_in_3_/S
+ mux_top_ipin_6.mux_l2_in_0_/X VGND VGND VPWR VPWR sky130_fd_sc_hd__mux2_1
XANTENNA_mux_top_ipin_0.sky130_fd_sc_hd__buf_4_0__A mux_top_ipin_0.mux_l4_in_0_/X
+ VGND VGND VPWR VPWR sky130_fd_sc_hd__diode_2
XFILLER_23_42 VGND VGND VPWR VPWR sky130_fd_sc_hd__decap_12
XFILLER_23_31 VGND VGND VPWR VPWR sky130_fd_sc_hd__fill_1
XFILLER_2_154 VGND VGND VPWR VPWR sky130_fd_sc_hd__decap_6
XFILLER_21_209 VGND VGND VPWR VPWR sky130_fd_sc_hd__decap_12
XANTENNA_mux_top_ipin_5.mux_l2_in_2__S mux_top_ipin_5.mux_l2_in_2_/S VGND VGND VPWR
+ VPWR sky130_fd_sc_hd__diode_2
XANTENNA_mux_top_ipin_5.mux_l2_in_1__A1 chanx_right_in[2] VGND VGND VPWR VPWR sky130_fd_sc_hd__diode_2
XANTENNA_clkbuf_2_1_0_prog_clk_A clkbuf_0_prog_clk/X VGND VGND VPWR VPWR sky130_fd_sc_hd__diode_2
X_49_ chanx_right_in[9] chanx_left_out[9] VGND VGND VPWR VPWR sky130_fd_sc_hd__buf_2
Xclkbuf_3_4_0_prog_clk clkbuf_2_2_0_prog_clk/X clkbuf_3_4_0_prog_clk/X VGND VGND VPWR
+ VPWR sky130_fd_sc_hd__clkbuf_1
XANTENNA_mem_top_ipin_6.sky130_fd_sc_hd__dfxbp_1_1__CLK clkbuf_3_3_0_prog_clk/X VGND
+ VGND VPWR VPWR sky130_fd_sc_hd__diode_2
XFILLER_20_242 VGND VGND VPWR VPWR sky130_fd_sc_hd__decap_3
XANTENNA_mux_top_ipin_12.mux_l1_in_0__S mux_top_ipin_12.mux_l1_in_2_/S VGND VGND VPWR
+ VPWR sky130_fd_sc_hd__diode_2
Xmux_top_ipin_13.mux_l2_in_1_ chanx_left_in[10] chanx_right_in[2] mux_top_ipin_13.mux_l2_in_3_/S
+ mux_top_ipin_13.mux_l2_in_1_/X VGND VGND VPWR VPWR sky130_fd_sc_hd__mux2_1
XFILLER_18_53 VGND VGND VPWR VPWR sky130_fd_sc_hd__decap_8
XFILLER_18_64 VGND VGND VPWR VPWR sky130_fd_sc_hd__decap_12
XFILLER_11_242 VGND VGND VPWR VPWR sky130_fd_sc_hd__fill_2
XFILLER_7_279 VGND VGND VPWR VPWR sky130_fd_sc_hd__fill_2
XANTENNA_mux_top_ipin_9.mux_l3_in_0__S mux_top_ipin_9.mux_l3_in_1_/S VGND VGND VPWR
+ VPWR sky130_fd_sc_hd__diode_2
XANTENNA_mux_top_ipin_10.mux_l3_in_1__A1 mux_top_ipin_10.mux_l2_in_2_/X VGND VGND
+ VPWR VPWR sky130_fd_sc_hd__diode_2
XANTENNA_mem_top_ipin_9.sky130_fd_sc_hd__dfxbp_1_2__D mux_top_ipin_9.mux_l2_in_0_/S
+ VGND VGND VPWR VPWR sky130_fd_sc_hd__diode_2
XANTENNA_mux_top_ipin_3.mux_l2_in_3__A1 chanx_right_in[14] VGND VGND VPWR VPWR sky130_fd_sc_hd__diode_2
XFILLER_20_32 VGND VGND VPWR VPWR sky130_fd_sc_hd__fill_2
XFILLER_20_43 VGND VGND VPWR VPWR sky130_fd_sc_hd__decap_12
XFILLER_20_76 VGND VGND VPWR VPWR sky130_fd_sc_hd__fill_1
XFILLER_29_30 VGND VGND VPWR VPWR sky130_fd_sc_hd__fill_2
XFILLER_28_183 VGND VGND VPWR VPWR sky130_fd_sc_hd__fill_2
XANTENNA_mux_top_ipin_2.mux_l1_in_0__A0 chanx_right_in[1] VGND VGND VPWR VPWR sky130_fd_sc_hd__diode_2
XANTENNA_mux_top_ipin_5.mux_l3_in_0__A1 mux_top_ipin_5.mux_l2_in_0_/X VGND VGND VPWR
+ VPWR sky130_fd_sc_hd__diode_2
XANTENNA_mem_top_ipin_9.sky130_fd_sc_hd__dfxbp_1_2__CLK clkbuf_3_4_0_prog_clk/X VGND
+ VGND VPWR VPWR sky130_fd_sc_hd__diode_2
XFILLER_6_23 VGND VGND VPWR VPWR sky130_fd_sc_hd__decap_8
XFILLER_3_293 VGND VGND VPWR VPWR sky130_fd_sc_hd__decap_6
XFILLER_26_109 VGND VGND VPWR VPWR sky130_fd_sc_hd__decap_12
XANTENNA_mux_top_ipin_11.mux_l2_in_0__S mux_top_ipin_11.mux_l2_in_3_/S VGND VGND VPWR
+ VPWR sky130_fd_sc_hd__diode_2
XFILLER_25_164 VGND VGND VPWR VPWR sky130_fd_sc_hd__decap_12
XFILLER_25_131 VGND VGND VPWR VPWR sky130_fd_sc_hd__decap_12
XANTENNA_mux_top_ipin_10.mux_l4_in_0__A1 mux_top_ipin_10.mux_l3_in_0_/X VGND VGND
+ VPWR VPWR sky130_fd_sc_hd__diode_2
XFILLER_0_296 VGND VGND VPWR VPWR sky130_fd_sc_hd__decap_3
XFILLER_31_167 VGND VGND VPWR VPWR sky130_fd_sc_hd__decap_4
XFILLER_31_123 VGND VGND VPWR VPWR sky130_fd_sc_hd__decap_6
XPHY_170 VGND VPWR sky130_fd_sc_hd__tapvpwrvgnd_1
XANTENNA_mux_top_ipin_8.mux_l4_in_0__S mux_top_ipin_8.mux_l4_in_0_/S VGND VGND VPWR
+ VPWR sky130_fd_sc_hd__diode_2
XFILLER_16_142 VGND VGND VPWR VPWR sky130_fd_sc_hd__fill_2
XFILLER_31_178 VGND VGND VPWR VPWR sky130_fd_sc_hd__fill_2
XPHY_192 VGND VPWR sky130_fd_sc_hd__tapvpwrvgnd_1
XPHY_181 VGND VPWR sky130_fd_sc_hd__tapvpwrvgnd_1
XANTENNA_mux_top_ipin_0.mux_l1_in_2__A0 chanx_right_in[5] VGND VGND VPWR VPWR sky130_fd_sc_hd__diode_2
XFILLER_22_145 VGND VGND VPWR VPWR sky130_fd_sc_hd__decap_8
XFILLER_22_101 VGND VGND VPWR VPWR sky130_fd_sc_hd__decap_3
Xmux_top_ipin_1.mux_l1_in_0_ chanx_right_in[0] chanx_left_in[0] mux_top_ipin_1.mux_l1_in_0_/S
+ mux_top_ipin_1.mux_l1_in_0_/X VGND VGND VPWR VPWR sky130_fd_sc_hd__mux2_1
XANTENNA_mux_top_ipin_3.sky130_fd_sc_hd__buf_4_0__A mux_top_ipin_3.mux_l4_in_0_/X
+ VGND VGND VPWR VPWR sky130_fd_sc_hd__diode_2
XFILLER_13_123 VGND VGND VPWR VPWR sky130_fd_sc_hd__fill_2
XFILLER_13_156 VGND VGND VPWR VPWR sky130_fd_sc_hd__fill_2
XFILLER_8_182 VGND VGND VPWR VPWR sky130_fd_sc_hd__fill_2
XFILLER_35_292 VGND VGND VPWR VPWR sky130_fd_sc_hd__decap_6
XANTENNA_mux_top_ipin_10.mux_l3_in_0__S mux_top_ipin_10.mux_l3_in_1_/S VGND VGND VPWR
+ VPWR sky130_fd_sc_hd__diode_2
XFILLER_12_11 VGND VGND VPWR VPWR sky130_fd_sc_hd__fill_2
XFILLER_12_66 VGND VGND VPWR VPWR sky130_fd_sc_hd__fill_2
XANTENNA_mux_top_ipin_0.mux_l2_in_1__A0 chanx_left_in[11] VGND VGND VPWR VPWR sky130_fd_sc_hd__diode_2
XFILLER_26_270 VGND VGND VPWR VPWR sky130_fd_sc_hd__decap_4
X_65_ chanx_left_in[13] chanx_right_out[13] VGND VGND VPWR VPWR sky130_fd_sc_hd__buf_2
XFILLER_17_270 VGND VGND VPWR VPWR sky130_fd_sc_hd__fill_2
XFILLER_23_251 VGND VGND VPWR VPWR sky130_fd_sc_hd__fill_2
XFILLER_23_54 VGND VGND VPWR VPWR sky130_fd_sc_hd__decap_4
XFILLER_15_229 VGND VGND VPWR VPWR sky130_fd_sc_hd__fill_2
XFILLER_2_199 VGND VGND VPWR VPWR sky130_fd_sc_hd__decap_6
XFILLER_0_25 VGND VGND VPWR VPWR sky130_fd_sc_hd__decap_4
XFILLER_0_58 VGND VGND VPWR VPWR sky130_fd_sc_hd__fill_2
XFILLER_9_23 VGND VGND VPWR VPWR sky130_fd_sc_hd__decap_8
XFILLER_9_34 VGND VGND VPWR VPWR sky130_fd_sc_hd__fill_2
X_48_ chanx_right_in[10] chanx_left_out[10] VGND VGND VPWR VPWR sky130_fd_sc_hd__buf_2
XANTENNA_mux_top_ipin_0.mux_l3_in_0__A0 mux_top_ipin_0.mux_l2_in_1_/X VGND VGND VPWR
+ VPWR sky130_fd_sc_hd__diode_2
XFILLER_20_276 VGND VGND VPWR VPWR sky130_fd_sc_hd__decap_12
Xmux_top_ipin_13.mux_l2_in_0_ chanx_left_in[2] mux_top_ipin_13.mux_l1_in_0_/X mux_top_ipin_13.mux_l2_in_3_/S
+ mux_top_ipin_13.mux_l2_in_0_/X VGND VGND VPWR VPWR sky130_fd_sc_hd__mux2_1
XANTENNA_mux_top_ipin_11.mux_l2_in_3__S mux_top_ipin_11.mux_l2_in_3_/S VGND VGND VPWR
+ VPWR sky130_fd_sc_hd__diode_2
XFILLER_18_32 VGND VGND VPWR VPWR sky130_fd_sc_hd__fill_2
XFILLER_18_76 VGND VGND VPWR VPWR sky130_fd_sc_hd__decap_12
XFILLER_11_254 VGND VGND VPWR VPWR sky130_fd_sc_hd__fill_2
XFILLER_11_298 VGND VGND VPWR VPWR sky130_fd_sc_hd__fill_1
XFILLER_15_7 VGND VGND VPWR VPWR sky130_fd_sc_hd__fill_2
XFILLER_6_280 VGND VGND VPWR VPWR sky130_fd_sc_hd__decap_12
XANTENNA_mux_top_ipin_15.mux_l3_in_1__S mux_top_ipin_15.mux_l3_in_1_/S VGND VGND VPWR
+ VPWR sky130_fd_sc_hd__diode_2
XFILLER_29_107 VGND VGND VPWR VPWR sky130_fd_sc_hd__fill_2
Xmux_top_ipin_6.mux_l1_in_0_ chanx_right_in[1] chanx_left_in[1] mux_top_ipin_6.mux_l1_in_0_/S
+ mux_top_ipin_6.mux_l1_in_0_/X VGND VGND VPWR VPWR sky130_fd_sc_hd__mux2_1
XFILLER_29_129 VGND VGND VPWR VPWR sky130_fd_sc_hd__fill_2
Xltile_mode_io__0.ltile_physical_iopad_0.EMBEDDED_IO_mem.sky130_fd_sc_hd__dfxbp_1_0_
+ mux_top_ipin_15.mux_l4_in_0_/S ccff_tail ltile_mode_io__0.ltile_physical_iopad_0.EMBEDDED_IO_mem.sky130_fd_sc_hd__dfxbp_1_0_/Q_N
+ clkbuf_3_6_0_prog_clk/X VGND VGND VPWR VPWR sky130_fd_sc_hd__dfxbp_1
XFILLER_4_206 VGND VGND VPWR VPWR sky130_fd_sc_hd__decap_4
XFILLER_20_55 VGND VGND VPWR VPWR sky130_fd_sc_hd__decap_6
XFILLER_29_75 VGND VGND VPWR VPWR sky130_fd_sc_hd__decap_12
XFILLER_29_42 VGND VGND VPWR VPWR sky130_fd_sc_hd__decap_12
XFILLER_28_195 VGND VGND VPWR VPWR sky130_fd_sc_hd__fill_2
XANTENNA_mux_top_ipin_2.mux_l1_in_0__A1 chanx_left_in[1] VGND VGND VPWR VPWR sky130_fd_sc_hd__diode_2
XANTENNA_mux_top_ipin_6.sky130_fd_sc_hd__buf_4_0__A mux_top_ipin_6.mux_l4_in_0_/X
+ VGND VGND VPWR VPWR sky130_fd_sc_hd__diode_2
XFILLER_6_57 VGND VGND VPWR VPWR sky130_fd_sc_hd__decap_6
XANTENNA_mux_top_ipin_14.mux_l2_in_1__A0 chanx_left_in[11] VGND VGND VPWR VPWR sky130_fd_sc_hd__diode_2
XFILLER_34_176 VGND VGND VPWR VPWR sky130_fd_sc_hd__decap_12
XFILLER_34_154 VGND VGND VPWR VPWR sky130_fd_sc_hd__decap_12
XANTENNA_mem_bottom_ipin_0.sky130_fd_sc_hd__dfxbp_1_2__CLK clkbuf_3_3_0_prog_clk/X
+ VGND VGND VPWR VPWR sky130_fd_sc_hd__diode_2
XFILLER_25_176 VGND VGND VPWR VPWR sky130_fd_sc_hd__decap_4
XFILLER_25_143 VGND VGND VPWR VPWR sky130_fd_sc_hd__decap_8
XFILLER_15_11 VGND VGND VPWR VPWR sky130_fd_sc_hd__fill_2
XANTENNA_mem_top_ipin_11.sky130_fd_sc_hd__dfxbp_1_2__D mux_top_ipin_11.mux_l2_in_3_/S
+ VGND VGND VPWR VPWR sky130_fd_sc_hd__diode_2
XFILLER_0_275 VGND VGND VPWR VPWR sky130_fd_sc_hd__decap_4
XANTENNA_mem_top_ipin_1.sky130_fd_sc_hd__dfxbp_1_2__D mux_top_ipin_1.mux_l2_in_3_/S
+ VGND VGND VPWR VPWR sky130_fd_sc_hd__diode_2
XFILLER_31_135 VGND VGND VPWR VPWR sky130_fd_sc_hd__fill_2
XPHY_193 VGND VPWR sky130_fd_sc_hd__tapvpwrvgnd_1
XPHY_182 VGND VPWR sky130_fd_sc_hd__tapvpwrvgnd_1
XPHY_171 VGND VPWR sky130_fd_sc_hd__tapvpwrvgnd_1
XANTENNA_mux_top_ipin_9.mux_l2_in_0__A0 chanx_left_in[2] VGND VGND VPWR VPWR sky130_fd_sc_hd__diode_2
XFILLER_16_165 VGND VGND VPWR VPWR sky130_fd_sc_hd__fill_2
XPHY_160 VGND VPWR sky130_fd_sc_hd__tapvpwrvgnd_1
XANTENNA_mux_top_ipin_0.mux_l1_in_2__A1 chanx_left_in[5] VGND VGND VPWR VPWR sky130_fd_sc_hd__diode_2
XANTENNA_mux_top_ipin_12.mux_l2_in_3__A0 _26_/HI VGND VGND VPWR VPWR sky130_fd_sc_hd__diode_2
XANTENNA_mem_top_ipin_10.sky130_fd_sc_hd__dfxbp_1_1__CLK clkbuf_3_5_0_prog_clk/X VGND
+ VGND VPWR VPWR sky130_fd_sc_hd__diode_2
XFILLER_26_32 VGND VGND VPWR VPWR sky130_fd_sc_hd__fill_2
XFILLER_26_98 VGND VGND VPWR VPWR sky130_fd_sc_hd__fill_2
XFILLER_26_54 VGND VGND VPWR VPWR sky130_fd_sc_hd__decap_8
XANTENNA_mux_top_ipin_14.mux_l3_in_0__A0 mux_top_ipin_14.mux_l2_in_1_/X VGND VGND
+ VPWR VPWR sky130_fd_sc_hd__diode_2
XANTENNA_mux_top_ipin_7.mux_l2_in_2__A0 chanx_left_in[18] VGND VGND VPWR VPWR sky130_fd_sc_hd__diode_2
XANTENNA_mux_top_ipin_7.mux_l1_in_0__S mux_top_ipin_7.mux_l1_in_0_/S VGND VGND VPWR
+ VPWR sky130_fd_sc_hd__diode_2
XANTENNA_mux_top_ipin_0.mux_l2_in_1__A1 mux_top_ipin_0.mux_l1_in_2_/X VGND VGND VPWR
+ VPWR sky130_fd_sc_hd__diode_2
XANTENNA_mem_top_ipin_13.sky130_fd_sc_hd__dfxbp_1_2__CLK clkbuf_3_6_0_prog_clk/X VGND
+ VGND VPWR VPWR sky130_fd_sc_hd__diode_2
XFILLER_5_131 VGND VGND VPWR VPWR sky130_fd_sc_hd__fill_1
XFILLER_5_175 VGND VGND VPWR VPWR sky130_fd_sc_hd__fill_2
X_64_ chanx_left_in[14] chanx_right_out[14] VGND VGND VPWR VPWR sky130_fd_sc_hd__buf_2
XFILLER_32_241 VGND VGND VPWR VPWR sky130_fd_sc_hd__decap_4
XFILLER_4_90 VGND VGND VPWR VPWR sky130_fd_sc_hd__fill_2
XFILLER_23_66 VGND VGND VPWR VPWR sky130_fd_sc_hd__decap_3
Xmux_top_ipin_4.sky130_fd_sc_hd__buf_4_0_ mux_top_ipin_4.mux_l4_in_0_/X bottom_grid_pin_4_
+ VGND VGND VPWR VPWR sky130_fd_sc_hd__buf_4
XANTENNA_mem_top_ipin_6.sky130_fd_sc_hd__dfxbp_1_1__D mux_top_ipin_6.mux_l1_in_0_/S
+ VGND VGND VPWR VPWR sky130_fd_sc_hd__diode_2
XANTENNA_mux_top_ipin_7.mux_l3_in_1__A0 mux_top_ipin_7.mux_l2_in_3_/X VGND VGND VPWR
+ VPWR sky130_fd_sc_hd__diode_2
XFILLER_2_167 VGND VGND VPWR VPWR sky130_fd_sc_hd__decap_8
XFILLER_14_274 VGND VGND VPWR VPWR sky130_fd_sc_hd__fill_1
XFILLER_9_57 VGND VGND VPWR VPWR sky130_fd_sc_hd__fill_2
XFILLER_9_79 VGND VGND VPWR VPWR sky130_fd_sc_hd__fill_2
XANTENNA_mux_top_ipin_9.sky130_fd_sc_hd__buf_4_0__A mux_top_ipin_9.mux_l4_in_0_/X
+ VGND VGND VPWR VPWR sky130_fd_sc_hd__diode_2
XANTENNA_mux_top_ipin_6.mux_l2_in_0__S mux_top_ipin_6.mux_l2_in_3_/S VGND VGND VPWR
+ VPWR sky130_fd_sc_hd__diode_2
X_47_ chanx_right_in[11] chanx_left_out[11] VGND VGND VPWR VPWR sky130_fd_sc_hd__buf_2
XANTENNA_mux_top_ipin_0.mux_l3_in_0__A1 mux_top_ipin_0.mux_l2_in_0_/X VGND VGND VPWR
+ VPWR sky130_fd_sc_hd__diode_2
XFILLER_20_288 VGND VGND VPWR VPWR sky130_fd_sc_hd__decap_8
XFILLER_18_22 VGND VGND VPWR VPWR sky130_fd_sc_hd__decap_4
XFILLER_34_32 VGND VGND VPWR VPWR sky130_fd_sc_hd__decap_12
XFILLER_18_88 VGND VGND VPWR VPWR sky130_fd_sc_hd__decap_4
XFILLER_34_76 VGND VGND VPWR VPWR sky130_fd_sc_hd__fill_2
XFILLER_7_259 VGND VGND VPWR VPWR sky130_fd_sc_hd__fill_2
XANTENNA_mux_bottom_ipin_0.mux_l1_in_0__S mux_bottom_ipin_0.mux_l1_in_0_/S VGND VGND
+ VPWR VPWR sky130_fd_sc_hd__diode_2
XFILLER_6_292 VGND VGND VPWR VPWR sky130_fd_sc_hd__decap_6
XFILLER_29_119 VGND VGND VPWR VPWR sky130_fd_sc_hd__decap_3
XANTENNA_mem_top_ipin_0.sky130_fd_sc_hd__dfxbp_1_2__CLK clkbuf_3_2_0_prog_clk/X VGND
+ VGND VPWR VPWR sky130_fd_sc_hd__diode_2
XANTENNA_mux_top_ipin_7.mux_l4_in_0__A0 mux_top_ipin_7.mux_l3_in_1_/X VGND VGND VPWR
+ VPWR sky130_fd_sc_hd__diode_2
XANTENNA_mux_top_ipin_1.mux_l2_in_2__S mux_top_ipin_1.mux_l2_in_3_/S VGND VGND VPWR
+ VPWR sky130_fd_sc_hd__diode_2
XFILLER_20_89 VGND VGND VPWR VPWR sky130_fd_sc_hd__decap_3
XFILLER_29_87 VGND VGND VPWR VPWR sky130_fd_sc_hd__fill_1
XFILLER_29_54 VGND VGND VPWR VPWR sky130_fd_sc_hd__fill_1
XFILLER_6_36 VGND VGND VPWR VPWR sky130_fd_sc_hd__decap_6
XFILLER_34_166 VGND VGND VPWR VPWR sky130_fd_sc_hd__decap_6
XANTENNA_mux_top_ipin_14.mux_l2_in_1__A1 chanx_right_in[3] VGND VGND VPWR VPWR sky130_fd_sc_hd__diode_2
XFILLER_19_152 VGND VGND VPWR VPWR sky130_fd_sc_hd__fill_2
XFILLER_34_188 VGND VGND VPWR VPWR sky130_fd_sc_hd__decap_12
XANTENNA_mux_top_ipin_5.mux_l3_in_0__S mux_top_ipin_5.mux_l3_in_1_/S VGND VGND VPWR
+ VPWR sky130_fd_sc_hd__diode_2
Xmux_top_ipin_13.mux_l1_in_0_ chanx_right_in[0] chanx_left_in[0] mux_top_ipin_13.mux_l1_in_0_/S
+ mux_top_ipin_13.mux_l1_in_0_/X VGND VGND VPWR VPWR sky130_fd_sc_hd__mux2_1
XFILLER_25_188 VGND VGND VPWR VPWR sky130_fd_sc_hd__fill_2
XFILLER_25_111 VGND VGND VPWR VPWR sky130_fd_sc_hd__decap_8
XFILLER_15_89 VGND VGND VPWR VPWR sky130_fd_sc_hd__fill_2
XANTENNA_mem_top_ipin_3.sky130_fd_sc_hd__dfxbp_1_3__CLK clkbuf_3_1_0_prog_clk/X VGND
+ VGND VPWR VPWR sky130_fd_sc_hd__diode_2
XANTENNA_mux_top_ipin_9.mux_l2_in_0__A1 mux_top_ipin_9.mux_l1_in_0_/X VGND VGND VPWR
+ VPWR sky130_fd_sc_hd__diode_2
XFILLER_16_122 VGND VGND VPWR VPWR sky130_fd_sc_hd__fill_1
XPHY_194 VGND VPWR sky130_fd_sc_hd__tapvpwrvgnd_1
XPHY_183 VGND VPWR sky130_fd_sc_hd__tapvpwrvgnd_1
XPHY_172 VGND VPWR sky130_fd_sc_hd__tapvpwrvgnd_1
XPHY_150 VGND VPWR sky130_fd_sc_hd__tapvpwrvgnd_1
XPHY_161 VGND VPWR sky130_fd_sc_hd__tapvpwrvgnd_1
XFILLER_22_125 VGND VGND VPWR VPWR sky130_fd_sc_hd__fill_2
XANTENNA_mux_top_ipin_12.mux_l2_in_3__A1 chanx_right_in[17] VGND VGND VPWR VPWR sky130_fd_sc_hd__diode_2
Xclkbuf_2_1_0_prog_clk clkbuf_0_prog_clk/X clkbuf_3_3_0_prog_clk/A VGND VGND VPWR
+ VPWR sky130_fd_sc_hd__clkbuf_1
XFILLER_26_44 VGND VGND VPWR VPWR sky130_fd_sc_hd__fill_1
XANTENNA_mux_top_ipin_14.mux_l3_in_0__A1 mux_top_ipin_14.mux_l2_in_0_/X VGND VGND
+ VPWR VPWR sky130_fd_sc_hd__diode_2
XFILLER_9_118 VGND VGND VPWR VPWR sky130_fd_sc_hd__fill_2
XANTENNA_mux_top_ipin_11.mux_l1_in_0__A0 chanx_right_in[0] VGND VGND VPWR VPWR sky130_fd_sc_hd__diode_2
X_80_ bottom_width_0_height_0__pin_0_ gfpga_pad_EMBEDDED_IO_SOC_OUT VGND VGND VPWR
+ VPWR sky130_fd_sc_hd__buf_2
XFILLER_3_37 VGND VGND VPWR VPWR sky130_fd_sc_hd__fill_2
XFILLER_29_291 VGND VGND VPWR VPWR sky130_fd_sc_hd__decap_8
XANTENNA_mux_top_ipin_7.mux_l2_in_2__A1 chanx_right_in[12] VGND VGND VPWR VPWR sky130_fd_sc_hd__diode_2
XFILLER_8_140 VGND VGND VPWR VPWR sky130_fd_sc_hd__decap_4
XFILLER_8_162 VGND VGND VPWR VPWR sky130_fd_sc_hd__fill_1
XANTENNA_mux_top_ipin_6.mux_l2_in_3__S mux_top_ipin_6.mux_l2_in_3_/S VGND VGND VPWR
+ VPWR sky130_fd_sc_hd__diode_2
XANTENNA_mux_top_ipin_4.mux_l4_in_0__S mux_top_ipin_4.mux_l4_in_0_/S VGND VGND VPWR
+ VPWR sky130_fd_sc_hd__diode_2
XFILLER_35_261 VGND VGND VPWR VPWR sky130_fd_sc_hd__decap_12
XFILLER_5_7 VGND VGND VPWR VPWR sky130_fd_sc_hd__fill_2
X_63_ chanx_left_in[15] chanx_right_out[15] VGND VGND VPWR VPWR sky130_fd_sc_hd__buf_2
XFILLER_32_264 VGND VGND VPWR VPWR sky130_fd_sc_hd__decap_8
XFILLER_23_264 VGND VGND VPWR VPWR sky130_fd_sc_hd__decap_12
XFILLER_23_34 VGND VGND VPWR VPWR sky130_fd_sc_hd__fill_2
XANTENNA_mem_top_ipin_7.sky130_fd_sc_hd__dfxbp_1_0__CLK clkbuf_3_3_0_prog_clk/X VGND
+ VGND VPWR VPWR sky130_fd_sc_hd__diode_2
XFILLER_2_124 VGND VGND VPWR VPWR sky130_fd_sc_hd__decap_12
XANTENNA_mux_top_ipin_4.mux_l1_in_1__A0 chanx_right_in[3] VGND VGND VPWR VPWR sky130_fd_sc_hd__diode_2
XANTENNA_mux_top_ipin_7.mux_l3_in_1__A1 mux_top_ipin_7.mux_l2_in_2_/X VGND VGND VPWR
+ VPWR sky130_fd_sc_hd__diode_2
XFILLER_0_38 VGND VGND VPWR VPWR sky130_fd_sc_hd__decap_4
XFILLER_29_3 VGND VGND VPWR VPWR sky130_fd_sc_hd__fill_2
X_46_ chanx_right_in[12] chanx_left_out[12] VGND VGND VPWR VPWR sky130_fd_sc_hd__buf_2
XFILLER_20_267 VGND VGND VPWR VPWR sky130_fd_sc_hd__decap_4
XFILLER_20_234 VGND VGND VPWR VPWR sky130_fd_sc_hd__decap_8
XANTENNA_mux_top_ipin_12.mux_l2_in_1__S mux_top_ipin_12.mux_l2_in_2_/S VGND VGND VPWR
+ VPWR sky130_fd_sc_hd__diode_2
XFILLER_34_44 VGND VGND VPWR VPWR sky130_fd_sc_hd__decap_12
XFILLER_7_238 VGND VGND VPWR VPWR sky130_fd_sc_hd__fill_2
XFILLER_11_278 VGND VGND VPWR VPWR sky130_fd_sc_hd__decap_12
X_29_ _29_/HI _29_/LO VGND VGND VPWR VPWR sky130_fd_sc_hd__conb_1
XANTENNA_mux_top_ipin_7.mux_l4_in_0__A1 mux_top_ipin_7.mux_l3_in_0_/X VGND VGND VPWR
+ VPWR sky130_fd_sc_hd__diode_2
XANTENNA_mux_top_ipin_4.mux_l2_in_0__A0 mux_top_ipin_4.mux_l1_in_1_/X VGND VGND VPWR
+ VPWR sky130_fd_sc_hd__diode_2
XFILLER_20_24 VGND VGND VPWR VPWR sky130_fd_sc_hd__decap_3
XFILLER_29_11 VGND VGND VPWR VPWR sky130_fd_sc_hd__decap_4
Xmux_top_ipin_11.sky130_fd_sc_hd__buf_4_0_ mux_top_ipin_11.mux_l4_in_0_/X bottom_grid_pin_11_
+ VGND VGND VPWR VPWR sky130_fd_sc_hd__buf_4
Xclkbuf_3_3_0_prog_clk clkbuf_3_3_0_prog_clk/A clkbuf_3_3_0_prog_clk/X VGND VGND VPWR
+ VPWR sky130_fd_sc_hd__clkbuf_1
XANTENNA_mux_top_ipin_10.sky130_fd_sc_hd__buf_4_0__A mux_top_ipin_10.mux_l4_in_0_/X
+ VGND VGND VPWR VPWR sky130_fd_sc_hd__diode_2
XFILLER_6_48 VGND VGND VPWR VPWR sky130_fd_sc_hd__decap_3
XFILLER_19_131 VGND VGND VPWR VPWR sky130_fd_sc_hd__fill_1
Xmux_bottom_ipin_0.sky130_fd_sc_hd__buf_4_0_ mux_bottom_ipin_0.mux_l4_in_0_/X top_grid_pin_0_
+ VGND VGND VPWR VPWR sky130_fd_sc_hd__buf_4
XFILLER_19_164 VGND VGND VPWR VPWR sky130_fd_sc_hd__decap_12
XFILLER_19_197 VGND VGND VPWR VPWR sky130_fd_sc_hd__decap_8
XFILLER_25_123 VGND VGND VPWR VPWR sky130_fd_sc_hd__fill_2
XFILLER_25_156 VGND VGND VPWR VPWR sky130_fd_sc_hd__fill_2
XANTENNA_mux_top_ipin_2.mux_l2_in_2__A0 chanx_left_in[15] VGND VGND VPWR VPWR sky130_fd_sc_hd__diode_2
XANTENNA_mux_top_ipin_11.mux_l3_in_1__S mux_top_ipin_11.mux_l3_in_1_/S VGND VGND VPWR
+ VPWR sky130_fd_sc_hd__diode_2
XFILLER_15_57 VGND VGND VPWR VPWR sky130_fd_sc_hd__fill_2
XFILLER_31_78 VGND VGND VPWR VPWR sky130_fd_sc_hd__decap_4
XFILLER_0_255 VGND VGND VPWR VPWR sky130_fd_sc_hd__fill_2
XFILLER_0_222 VGND VGND VPWR VPWR sky130_fd_sc_hd__decap_8
XPHY_195 VGND VPWR sky130_fd_sc_hd__tapvpwrvgnd_1
XPHY_184 VGND VPWR sky130_fd_sc_hd__tapvpwrvgnd_1
XPHY_173 VGND VPWR sky130_fd_sc_hd__tapvpwrvgnd_1
XPHY_140 VGND VPWR sky130_fd_sc_hd__tapvpwrvgnd_1
XPHY_151 VGND VPWR sky130_fd_sc_hd__tapvpwrvgnd_1
XPHY_162 VGND VPWR sky130_fd_sc_hd__tapvpwrvgnd_1
XFILLER_7_91 VGND VGND VPWR VPWR sky130_fd_sc_hd__fill_2
XFILLER_26_89 VGND VGND VPWR VPWR sky130_fd_sc_hd__decap_3
XFILLER_26_23 VGND VGND VPWR VPWR sky130_fd_sc_hd__decap_8
XFILLER_13_104 VGND VGND VPWR VPWR sky130_fd_sc_hd__fill_2
XANTENNA_mux_top_ipin_11.mux_l1_in_0__A1 chanx_left_in[0] VGND VGND VPWR VPWR sky130_fd_sc_hd__diode_2
Xmux_top_ipin_2.mux_l2_in_3_ _30_/HI chanx_right_in[15] mux_top_ipin_2.mux_l2_in_3_/S
+ mux_top_ipin_2.mux_l2_in_3_/X VGND VGND VPWR VPWR sky130_fd_sc_hd__mux2_1
XFILLER_3_49 VGND VGND VPWR VPWR sky130_fd_sc_hd__fill_2
XANTENNA_mem_top_ipin_13.sky130_fd_sc_hd__dfxbp_1_0__D mux_top_ipin_12.mux_l4_in_0_/S
+ VGND VGND VPWR VPWR sky130_fd_sc_hd__diode_2
XANTENNA_mux_top_ipin_2.mux_l3_in_1__A0 mux_top_ipin_2.mux_l2_in_3_/X VGND VGND VPWR
+ VPWR sky130_fd_sc_hd__diode_2
XANTENNA_mem_top_ipin_3.sky130_fd_sc_hd__dfxbp_1_0__D mux_top_ipin_2.mux_l4_in_0_/S
+ VGND VGND VPWR VPWR sky130_fd_sc_hd__diode_2
XFILLER_35_273 VGND VGND VPWR VPWR sky130_fd_sc_hd__decap_6
XFILLER_27_207 VGND VGND VPWR VPWR sky130_fd_sc_hd__decap_12
XFILLER_5_155 VGND VGND VPWR VPWR sky130_fd_sc_hd__fill_1
XFILLER_5_199 VGND VGND VPWR VPWR sky130_fd_sc_hd__fill_2
X_62_ chanx_left_in[16] chanx_right_out[16] VGND VGND VPWR VPWR sky130_fd_sc_hd__buf_2
XFILLER_32_298 VGND VGND VPWR VPWR sky130_fd_sc_hd__fill_1
XFILLER_32_221 VGND VGND VPWR VPWR sky130_fd_sc_hd__fill_1
XANTENNA_mux_top_ipin_3.mux_l1_in_0__S mux_top_ipin_3.mux_l1_in_2_/S VGND VGND VPWR
+ VPWR sky130_fd_sc_hd__diode_2
XFILLER_23_232 VGND VGND VPWR VPWR sky130_fd_sc_hd__decap_12
XFILLER_23_298 VGND VGND VPWR VPWR sky130_fd_sc_hd__fill_1
XFILLER_2_136 VGND VGND VPWR VPWR sky130_fd_sc_hd__decap_12
XANTENNA_mux_top_ipin_4.mux_l1_in_1__A1 chanx_left_in[3] VGND VGND VPWR VPWR sky130_fd_sc_hd__diode_2
XANTENNA_mux_top_ipin_2.mux_l4_in_0__A0 mux_top_ipin_2.mux_l3_in_1_/X VGND VGND VPWR
+ VPWR sky130_fd_sc_hd__diode_2
XFILLER_9_48 VGND VGND VPWR VPWR sky130_fd_sc_hd__fill_2
XFILLER_14_298 VGND VGND VPWR VPWR sky130_fd_sc_hd__fill_1
XANTENNA_mux_top_ipin_13.sky130_fd_sc_hd__buf_4_0__A mux_top_ipin_13.mux_l4_in_0_/X
+ VGND VGND VPWR VPWR sky130_fd_sc_hd__diode_2
X_45_ chanx_right_in[13] chanx_left_out[13] VGND VGND VPWR VPWR sky130_fd_sc_hd__buf_2
XFILLER_20_257 VGND VGND VPWR VPWR sky130_fd_sc_hd__fill_1
XFILLER_20_213 VGND VGND VPWR VPWR sky130_fd_sc_hd__fill_1
Xmux_top_ipin_2.mux_l4_in_0_ mux_top_ipin_2.mux_l3_in_1_/X mux_top_ipin_2.mux_l3_in_0_/X
+ mux_top_ipin_2.mux_l4_in_0_/S mux_top_ipin_2.mux_l4_in_0_/X VGND VGND VPWR VPWR
+ sky130_fd_sc_hd__mux2_1
XFILLER_9_291 VGND VGND VPWR VPWR sky130_fd_sc_hd__decap_8
XFILLER_34_56 VGND VGND VPWR VPWR sky130_fd_sc_hd__decap_12
XFILLER_11_235 VGND VGND VPWR VPWR sky130_fd_sc_hd__fill_1
XFILLER_6_250 VGND VGND VPWR VPWR sky130_fd_sc_hd__decap_12
XFILLER_1_71 VGND VGND VPWR VPWR sky130_fd_sc_hd__fill_2
X_28_ _28_/HI _28_/LO VGND VGND VPWR VPWR sky130_fd_sc_hd__conb_1
XANTENNA_mux_top_ipin_4.mux_l2_in_0__A1 mux_top_ipin_4.mux_l1_in_0_/X VGND VGND VPWR
+ VPWR sky130_fd_sc_hd__diode_2
Xmux_top_ipin_7.mux_l2_in_3_ _18_/HI chanx_right_in[18] mux_top_ipin_7.mux_l2_in_3_/S
+ mux_top_ipin_7.mux_l2_in_3_/X VGND VGND VPWR VPWR sky130_fd_sc_hd__mux2_1
XANTENNA_mux_top_ipin_2.mux_l2_in_0__S mux_top_ipin_2.mux_l2_in_3_/S VGND VGND VPWR
+ VPWR sky130_fd_sc_hd__diode_2
XFILLER_29_34 VGND VGND VPWR VPWR sky130_fd_sc_hd__fill_2
XFILLER_28_187 VGND VGND VPWR VPWR sky130_fd_sc_hd__decap_8
XFILLER_28_154 VGND VGND VPWR VPWR sky130_fd_sc_hd__decap_8
XFILLER_28_121 VGND VGND VPWR VPWR sky130_fd_sc_hd__decap_12
XFILLER_3_253 VGND VGND VPWR VPWR sky130_fd_sc_hd__decap_12
XFILLER_3_231 VGND VGND VPWR VPWR sky130_fd_sc_hd__decap_12
Xmux_top_ipin_2.mux_l3_in_1_ mux_top_ipin_2.mux_l2_in_3_/X mux_top_ipin_2.mux_l2_in_2_/X
+ mux_top_ipin_2.mux_l3_in_1_/S mux_top_ipin_2.mux_l3_in_1_/X VGND VGND VPWR VPWR
+ sky130_fd_sc_hd__mux2_1
XANTENNA_mux_top_ipin_9.mux_l2_in_3__A0 _20_/HI VGND VGND VPWR VPWR sky130_fd_sc_hd__diode_2
XFILLER_13_7 VGND VGND VPWR VPWR sky130_fd_sc_hd__fill_2
XFILLER_19_121 VGND VGND VPWR VPWR sky130_fd_sc_hd__fill_1
XANTENNA_mux_top_ipin_8.mux_l1_in_1__S mux_top_ipin_8.mux_l1_in_1_/S VGND VGND VPWR
+ VPWR sky130_fd_sc_hd__diode_2
XFILLER_19_176 VGND VGND VPWR VPWR sky130_fd_sc_hd__fill_1
XANTENNA_mem_top_ipin_13.sky130_fd_sc_hd__dfxbp_1_3__D mux_top_ipin_13.mux_l3_in_1_/S