* NGSPICE file created from cbx_1__2_.ext - technology: sky130A

* Black-box entry subcircuit for sky130_fd_sc_hd__diode_2 abstract view
.subckt sky130_fd_sc_hd__diode_2 DIODE VGND VNB VPB VPWR
.ends

* Black-box entry subcircuit for sky130_fd_sc_hd__dfxtp_1 abstract view
.subckt sky130_fd_sc_hd__dfxtp_1 D Q CLK VGND VNB VPB VPWR
.ends

* Black-box entry subcircuit for sky130_fd_sc_hd__fill_2 abstract view
.subckt sky130_fd_sc_hd__fill_2 VGND VNB VPB VPWR
.ends

* Black-box entry subcircuit for sky130_fd_sc_hd__decap_12 abstract view
.subckt sky130_fd_sc_hd__decap_12 VGND VNB VPB VPWR
.ends

* Black-box entry subcircuit for sky130_fd_sc_hd__fill_1 abstract view
.subckt sky130_fd_sc_hd__fill_1 VGND VNB VPB VPWR
.ends

* Black-box entry subcircuit for sky130_fd_sc_hd__decap_8 abstract view
.subckt sky130_fd_sc_hd__decap_8 VGND VNB VPB VPWR
.ends

* Black-box entry subcircuit for sky130_fd_sc_hd__mux2_1 abstract view
.subckt sky130_fd_sc_hd__mux2_1 A0 A1 S X VGND VNB VPB VPWR
.ends

* Black-box entry subcircuit for sky130_fd_sc_hd__buf_2 abstract view
.subckt sky130_fd_sc_hd__buf_2 A X VGND VNB VPB VPWR
.ends

* Black-box entry subcircuit for sky130_fd_sc_hd__decap_6 abstract view
.subckt sky130_fd_sc_hd__decap_6 VGND VNB VPB VPWR
.ends

* Black-box entry subcircuit for sky130_fd_sc_hd__decap_4 abstract view
.subckt sky130_fd_sc_hd__decap_4 VGND VNB VPB VPWR
.ends

* Black-box entry subcircuit for sky130_fd_sc_hd__clkbuf_1 abstract view
.subckt sky130_fd_sc_hd__clkbuf_1 A X VGND VNB VPB VPWR
.ends

* Black-box entry subcircuit for sky130_fd_sc_hd__decap_3 abstract view
.subckt sky130_fd_sc_hd__decap_3 VGND VNB VPB VPWR
.ends

* Black-box entry subcircuit for sky130_fd_sc_hd__tapvpwrvgnd_1 abstract view
.subckt sky130_fd_sc_hd__tapvpwrvgnd_1 VGND VPWR
.ends

* Black-box entry subcircuit for sky130_fd_sc_hd__buf_4 abstract view
.subckt sky130_fd_sc_hd__buf_4 A X VGND VNB VPB VPWR
.ends

* Black-box entry subcircuit for sky130_fd_sc_hd__conb_1 abstract view
.subckt sky130_fd_sc_hd__conb_1 HI LO VGND VNB VPB VPWR
.ends

* Black-box entry subcircuit for sky130_fd_sc_hd__clkbuf_16 abstract view
.subckt sky130_fd_sc_hd__clkbuf_16 A X VGND VNB VPB VPWR
.ends

.subckt cbx_1__2_ SC_IN_BOT SC_IN_TOP SC_OUT_BOT SC_OUT_TOP bottom_grid_pin_0_ bottom_grid_pin_10_
+ bottom_grid_pin_11_ bottom_grid_pin_12_ bottom_grid_pin_13_ bottom_grid_pin_14_
+ bottom_grid_pin_15_ bottom_grid_pin_1_ bottom_grid_pin_2_ bottom_grid_pin_3_ bottom_grid_pin_4_
+ bottom_grid_pin_5_ bottom_grid_pin_6_ bottom_grid_pin_7_ bottom_grid_pin_8_ bottom_grid_pin_9_
+ bottom_width_0_height_0__pin_0_ bottom_width_0_height_0__pin_1_lower bottom_width_0_height_0__pin_1_upper
+ ccff_head ccff_tail chanx_left_in[0] chanx_left_in[10] chanx_left_in[11] chanx_left_in[12]
+ chanx_left_in[13] chanx_left_in[14] chanx_left_in[15] chanx_left_in[16] chanx_left_in[17]
+ chanx_left_in[18] chanx_left_in[19] chanx_left_in[1] chanx_left_in[2] chanx_left_in[3]
+ chanx_left_in[4] chanx_left_in[5] chanx_left_in[6] chanx_left_in[7] chanx_left_in[8]
+ chanx_left_in[9] chanx_left_out[0] chanx_left_out[10] chanx_left_out[11] chanx_left_out[12]
+ chanx_left_out[13] chanx_left_out[14] chanx_left_out[15] chanx_left_out[16] chanx_left_out[17]
+ chanx_left_out[18] chanx_left_out[19] chanx_left_out[1] chanx_left_out[2] chanx_left_out[3]
+ chanx_left_out[4] chanx_left_out[5] chanx_left_out[6] chanx_left_out[7] chanx_left_out[8]
+ chanx_left_out[9] chanx_right_in[0] chanx_right_in[10] chanx_right_in[11] chanx_right_in[12]
+ chanx_right_in[13] chanx_right_in[14] chanx_right_in[15] chanx_right_in[16] chanx_right_in[17]
+ chanx_right_in[18] chanx_right_in[19] chanx_right_in[1] chanx_right_in[2] chanx_right_in[3]
+ chanx_right_in[4] chanx_right_in[5] chanx_right_in[6] chanx_right_in[7] chanx_right_in[8]
+ chanx_right_in[9] chanx_right_out[0] chanx_right_out[10] chanx_right_out[11] chanx_right_out[12]
+ chanx_right_out[13] chanx_right_out[14] chanx_right_out[15] chanx_right_out[16]
+ chanx_right_out[17] chanx_right_out[18] chanx_right_out[19] chanx_right_out[1] chanx_right_out[2]
+ chanx_right_out[3] chanx_right_out[4] chanx_right_out[5] chanx_right_out[6] chanx_right_out[7]
+ chanx_right_out[8] chanx_right_out[9] gfpga_pad_EMBEDDED_IO_SOC_DIR gfpga_pad_EMBEDDED_IO_SOC_IN
+ gfpga_pad_EMBEDDED_IO_SOC_OUT prog_clk top_grid_pin_0_ VPWR VGND
XANTENNA_mux_top_ipin_7.mux_l1_in_0__A1 chanx_left_in[0] VGND VGND VPWR VPWR sky130_fd_sc_hd__diode_2
Xmem_top_ipin_8.sky130_fd_sc_hd__dfxtp_1_0_ mux_top_ipin_7.mux_l4_in_0_/S mux_top_ipin_8.mux_l1_in_0_/S
+ clkbuf_3_6_0_prog_clk/X VGND VGND VPWR VPWR sky130_fd_sc_hd__dfxtp_1
XFILLER_7_7 VGND VGND VPWR VPWR sky130_fd_sc_hd__fill_2
XANTENNA_mux_top_ipin_0.mux_l2_in_1__S mux_top_ipin_0.mux_l2_in_3_/S VGND VGND VPWR
+ VPWR sky130_fd_sc_hd__diode_2
XFILLER_26_41 VGND VGND VPWR VPWR sky130_fd_sc_hd__decap_12
XFILLER_9_115 VGND VGND VPWR VPWR sky130_fd_sc_hd__fill_1
XFILLER_3_34 VGND VGND VPWR VPWR sky130_fd_sc_hd__fill_1
XFILLER_3_67 VGND VGND VPWR VPWR sky130_fd_sc_hd__fill_2
XANTENNA_mux_top_ipin_12.mux_l2_in_0__A1 mux_top_ipin_12.mux_l1_in_0_/X VGND VGND
+ VPWR VPWR sky130_fd_sc_hd__diode_2
XFILLER_35_280 VGND VGND VPWR VPWR sky130_fd_sc_hd__decap_12
XFILLER_27_236 VGND VGND VPWR VPWR sky130_fd_sc_hd__fill_2
XFILLER_10_125 VGND VGND VPWR VPWR sky130_fd_sc_hd__decap_8
XFILLER_10_136 VGND VGND VPWR VPWR sky130_fd_sc_hd__decap_12
XFILLER_12_32 VGND VGND VPWR VPWR sky130_fd_sc_hd__decap_8
XFILLER_26_280 VGND VGND VPWR VPWR sky130_fd_sc_hd__decap_12
Xmux_top_ipin_13.mux_l3_in_0_ mux_top_ipin_13.mux_l2_in_1_/X mux_top_ipin_13.mux_l2_in_0_/X
+ mux_top_ipin_13.mux_l3_in_1_/S mux_top_ipin_13.mux_l3_in_0_/X VGND VGND VPWR VPWR
+ sky130_fd_sc_hd__mux2_1
XFILLER_5_184 VGND VGND VPWR VPWR sky130_fd_sc_hd__decap_12
XFILLER_24_206 VGND VGND VPWR VPWR sky130_fd_sc_hd__decap_8
X_66_ chanx_left_in[12] chanx_right_out[12] VGND VGND VPWR VPWR sky130_fd_sc_hd__buf_2
XANTENNA_mem_top_ipin_0.sky130_fd_sc_hd__dfxtp_1_1__CLK clkbuf_3_2_0_prog_clk/X VGND
+ VGND VPWR VPWR sky130_fd_sc_hd__diode_2
XANTENNA_mux_top_ipin_10.mux_l2_in_2__A1 chanx_right_in[7] VGND VGND VPWR VPWR sky130_fd_sc_hd__diode_2
XFILLER_23_283 VGND VGND VPWR VPWR sky130_fd_sc_hd__fill_2
Xmux_top_ipin_6.mux_l2_in_0_ chanx_left_in[3] mux_top_ipin_6.mux_l1_in_0_/X mux_top_ipin_6.mux_l2_in_0_/S
+ mux_top_ipin_6.mux_l2_in_0_/X VGND VGND VPWR VPWR sky130_fd_sc_hd__mux2_1
XANTENNA_mux_top_ipin_0.sky130_fd_sc_hd__buf_4_0__A mux_top_ipin_0.mux_l4_in_0_/X
+ VGND VGND VPWR VPWR sky130_fd_sc_hd__diode_2
XFILLER_15_228 VGND VGND VPWR VPWR sky130_fd_sc_hd__fill_2
XANTENNA_mem_top_ipin_7.sky130_fd_sc_hd__dfxtp_1_3__D mux_top_ipin_7.mux_l3_in_1_/S
+ VGND VGND VPWR VPWR sky130_fd_sc_hd__diode_2
XFILLER_23_42 VGND VGND VPWR VPWR sky130_fd_sc_hd__decap_6
XFILLER_2_176 VGND VGND VPWR VPWR sky130_fd_sc_hd__decap_4
XFILLER_2_154 VGND VGND VPWR VPWR sky130_fd_sc_hd__decap_4
XFILLER_0_57 VGND VGND VPWR VPWR sky130_fd_sc_hd__decap_4
XANTENNA_mux_top_ipin_5.mux_l2_in_2__S mux_top_ipin_5.mux_l2_in_2_/S VGND VGND VPWR
+ VPWR sky130_fd_sc_hd__diode_2
XANTENNA_mux_top_ipin_5.mux_l2_in_1__A1 chanx_right_in[2] VGND VGND VPWR VPWR sky130_fd_sc_hd__diode_2
XANTENNA_clkbuf_2_1_0_prog_clk_A clkbuf_0_prog_clk/X VGND VGND VPWR VPWR sky130_fd_sc_hd__diode_2
X_49_ chanx_right_in[9] chanx_left_out[9] VGND VGND VPWR VPWR sky130_fd_sc_hd__buf_2
Xclkbuf_3_4_0_prog_clk clkbuf_2_2_0_prog_clk/X clkbuf_3_4_0_prog_clk/X VGND VGND VPWR
+ VPWR sky130_fd_sc_hd__clkbuf_1
XFILLER_12_209 VGND VGND VPWR VPWR sky130_fd_sc_hd__fill_2
XFILLER_20_253 VGND VGND VPWR VPWR sky130_fd_sc_hd__decap_3
XANTENNA_mux_top_ipin_12.mux_l1_in_0__S mux_top_ipin_12.mux_l1_in_2_/S VGND VGND VPWR
+ VPWR sky130_fd_sc_hd__diode_2
Xmux_top_ipin_13.mux_l2_in_1_ chanx_left_in[10] chanx_right_in[2] mux_top_ipin_13.mux_l2_in_3_/S
+ mux_top_ipin_13.mux_l2_in_1_/X VGND VGND VPWR VPWR sky130_fd_sc_hd__mux2_1
XFILLER_34_85 VGND VGND VPWR VPWR sky130_fd_sc_hd__decap_6
XFILLER_11_231 VGND VGND VPWR VPWR sky130_fd_sc_hd__fill_1
XFILLER_11_242 VGND VGND VPWR VPWR sky130_fd_sc_hd__fill_2
XFILLER_11_253 VGND VGND VPWR VPWR sky130_fd_sc_hd__fill_2
XFILLER_7_279 VGND VGND VPWR VPWR sky130_fd_sc_hd__fill_2
XANTENNA_mem_top_ipin_3.sky130_fd_sc_hd__dfxtp_1_2__CLK clkbuf_3_1_0_prog_clk/X VGND
+ VGND VPWR VPWR sky130_fd_sc_hd__diode_2
XFILLER_22_7 VGND VGND VPWR VPWR sky130_fd_sc_hd__fill_1
XANTENNA_mux_top_ipin_9.mux_l3_in_0__S mux_top_ipin_9.mux_l3_in_1_/S VGND VGND VPWR
+ VPWR sky130_fd_sc_hd__diode_2
XANTENNA_mux_top_ipin_10.mux_l3_in_1__A1 mux_top_ipin_10.mux_l2_in_2_/X VGND VGND
+ VPWR VPWR sky130_fd_sc_hd__diode_2
XFILLER_29_106 VGND VGND VPWR VPWR sky130_fd_sc_hd__fill_2
XANTENNA_mux_top_ipin_3.mux_l2_in_3__A1 chanx_right_in[14] VGND VGND VPWR VPWR sky130_fd_sc_hd__diode_2
XFILLER_4_227 VGND VGND VPWR VPWR sky130_fd_sc_hd__fill_2
XFILLER_20_21 VGND VGND VPWR VPWR sky130_fd_sc_hd__decap_4
XFILLER_20_32 VGND VGND VPWR VPWR sky130_fd_sc_hd__decap_3
XFILLER_29_85 VGND VGND VPWR VPWR sky130_fd_sc_hd__fill_2
XFILLER_29_52 VGND VGND VPWR VPWR sky130_fd_sc_hd__decap_8
XANTENNA_mux_top_ipin_2.mux_l1_in_0__A0 chanx_right_in[1] VGND VGND VPWR VPWR sky130_fd_sc_hd__diode_2
XANTENNA_mux_top_ipin_5.mux_l3_in_0__A1 mux_top_ipin_5.mux_l2_in_0_/X VGND VGND VPWR
+ VPWR sky130_fd_sc_hd__diode_2
XFILLER_6_23 VGND VGND VPWR VPWR sky130_fd_sc_hd__decap_8
XFILLER_6_56 VGND VGND VPWR VPWR sky130_fd_sc_hd__decap_6
XANTENNA_mem_bottom_ipin_0.sky130_fd_sc_hd__dfxtp_1_0__D ccff_head VGND VGND VPWR
+ VPWR sky130_fd_sc_hd__diode_2
XFILLER_19_194 VGND VGND VPWR VPWR sky130_fd_sc_hd__fill_2
XANTENNA_mem_top_ipin_6.sky130_fd_sc_hd__dfxtp_1_3__CLK clkbuf_3_3_0_prog_clk/X VGND
+ VGND VPWR VPWR sky130_fd_sc_hd__diode_2
XANTENNA_mux_top_ipin_11.mux_l2_in_0__S mux_top_ipin_11.mux_l2_in_3_/S VGND VGND VPWR
+ VPWR sky130_fd_sc_hd__diode_2
XFILLER_25_142 VGND VGND VPWR VPWR sky130_fd_sc_hd__fill_2
XFILLER_25_120 VGND VGND VPWR VPWR sky130_fd_sc_hd__fill_2
XANTENNA_mux_top_ipin_10.mux_l4_in_0__A1 mux_top_ipin_10.mux_l3_in_0_/X VGND VGND
+ VPWR VPWR sky130_fd_sc_hd__diode_2
XFILLER_15_54 VGND VGND VPWR VPWR sky130_fd_sc_hd__fill_1
XFILLER_31_86 VGND VGND VPWR VPWR sky130_fd_sc_hd__fill_2
XFILLER_0_296 VGND VGND VPWR VPWR sky130_fd_sc_hd__decap_3
XFILLER_31_145 VGND VGND VPWR VPWR sky130_fd_sc_hd__decap_12
XFILLER_31_123 VGND VGND VPWR VPWR sky130_fd_sc_hd__decap_4
XPHY_170 VGND VPWR sky130_fd_sc_hd__tapvpwrvgnd_1
XANTENNA_mux_top_ipin_8.mux_l4_in_0__S mux_top_ipin_8.mux_l4_in_0_/S VGND VGND VPWR
+ VPWR sky130_fd_sc_hd__diode_2
XFILLER_16_164 VGND VGND VPWR VPWR sky130_fd_sc_hd__fill_2
XFILLER_16_186 VGND VGND VPWR VPWR sky130_fd_sc_hd__fill_2
XPHY_192 VGND VPWR sky130_fd_sc_hd__tapvpwrvgnd_1
XPHY_181 VGND VPWR sky130_fd_sc_hd__tapvpwrvgnd_1
XANTENNA_mux_top_ipin_0.mux_l1_in_2__A0 chanx_right_in[5] VGND VGND VPWR VPWR sky130_fd_sc_hd__diode_2
XFILLER_22_101 VGND VGND VPWR VPWR sky130_fd_sc_hd__fill_2
Xmux_top_ipin_1.mux_l1_in_0_ chanx_right_in[0] chanx_left_in[0] mux_top_ipin_1.mux_l1_in_0_/S
+ mux_top_ipin_1.mux_l1_in_0_/X VGND VGND VPWR VPWR sky130_fd_sc_hd__mux2_1
XFILLER_26_97 VGND VGND VPWR VPWR sky130_fd_sc_hd__fill_1
XFILLER_26_53 VGND VGND VPWR VPWR sky130_fd_sc_hd__decap_4
XANTENNA_mux_top_ipin_3.sky130_fd_sc_hd__buf_4_0__A mux_top_ipin_3.mux_l4_in_0_/X
+ VGND VGND VPWR VPWR sky130_fd_sc_hd__diode_2
XFILLER_13_112 VGND VGND VPWR VPWR sky130_fd_sc_hd__fill_2
XFILLER_13_123 VGND VGND VPWR VPWR sky130_fd_sc_hd__fill_2
XFILLER_13_167 VGND VGND VPWR VPWR sky130_fd_sc_hd__decap_12
XFILLER_8_193 VGND VGND VPWR VPWR sky130_fd_sc_hd__decap_12
XFILLER_35_292 VGND VGND VPWR VPWR sky130_fd_sc_hd__decap_6
XANTENNA_mux_top_ipin_10.mux_l3_in_0__S mux_top_ipin_10.mux_l3_in_1_/S VGND VGND VPWR
+ VPWR sky130_fd_sc_hd__diode_2
XFILLER_10_148 VGND VGND VPWR VPWR sky130_fd_sc_hd__decap_4
XFILLER_12_11 VGND VGND VPWR VPWR sky130_fd_sc_hd__fill_1
XFILLER_12_55 VGND VGND VPWR VPWR sky130_fd_sc_hd__fill_2
XFILLER_12_88 VGND VGND VPWR VPWR sky130_fd_sc_hd__decap_4
XANTENNA_mux_top_ipin_0.mux_l2_in_1__A0 chanx_left_in[11] VGND VGND VPWR VPWR sky130_fd_sc_hd__diode_2
XFILLER_33_218 VGND VGND VPWR VPWR sky130_fd_sc_hd__decap_12
XFILLER_18_215 VGND VGND VPWR VPWR sky130_fd_sc_hd__fill_2
XFILLER_26_292 VGND VGND VPWR VPWR sky130_fd_sc_hd__decap_6
XFILLER_5_141 VGND VGND VPWR VPWR sky130_fd_sc_hd__decap_6
XFILLER_5_196 VGND VGND VPWR VPWR sky130_fd_sc_hd__decap_8
X_65_ chanx_left_in[13] chanx_right_out[13] VGND VGND VPWR VPWR sky130_fd_sc_hd__buf_2
XFILLER_32_284 VGND VGND VPWR VPWR sky130_fd_sc_hd__decap_12
XFILLER_15_207 VGND VGND VPWR VPWR sky130_fd_sc_hd__fill_2
XFILLER_23_240 VGND VGND VPWR VPWR sky130_fd_sc_hd__decap_4
XFILLER_2_199 VGND VGND VPWR VPWR sky130_fd_sc_hd__fill_2
XFILLER_0_69 VGND VGND VPWR VPWR sky130_fd_sc_hd__fill_2
XFILLER_9_23 VGND VGND VPWR VPWR sky130_fd_sc_hd__fill_2
XFILLER_14_251 VGND VGND VPWR VPWR sky130_fd_sc_hd__decap_4
XANTENNA_mem_bottom_ipin_0.sky130_fd_sc_hd__dfxtp_1_3__D mux_bottom_ipin_0.mux_l3_in_1_/S
+ VGND VGND VPWR VPWR sky130_fd_sc_hd__diode_2
X_48_ chanx_right_in[10] chanx_left_out[10] VGND VGND VPWR VPWR sky130_fd_sc_hd__buf_2
XANTENNA_mux_top_ipin_0.mux_l3_in_0__A0 mux_top_ipin_0.mux_l2_in_1_/X VGND VGND VPWR
+ VPWR sky130_fd_sc_hd__diode_2
XFILLER_20_276 VGND VGND VPWR VPWR sky130_fd_sc_hd__decap_6
Xmux_top_ipin_13.mux_l2_in_0_ chanx_left_in[2] mux_top_ipin_13.mux_l1_in_0_/X mux_top_ipin_13.mux_l2_in_3_/S
+ mux_top_ipin_13.mux_l2_in_0_/X VGND VGND VPWR VPWR sky130_fd_sc_hd__mux2_1
XANTENNA_mux_top_ipin_11.mux_l2_in_3__S mux_top_ipin_11.mux_l2_in_3_/S VGND VGND VPWR
+ VPWR sky130_fd_sc_hd__diode_2
XFILLER_18_21 VGND VGND VPWR VPWR sky130_fd_sc_hd__decap_4
XFILLER_18_32 VGND VGND VPWR VPWR sky130_fd_sc_hd__decap_4
XFILLER_18_43 VGND VGND VPWR VPWR sky130_fd_sc_hd__fill_1
XFILLER_18_87 VGND VGND VPWR VPWR sky130_fd_sc_hd__decap_4
XFILLER_11_221 VGND VGND VPWR VPWR sky130_fd_sc_hd__fill_2
XFILLER_15_7 VGND VGND VPWR VPWR sky130_fd_sc_hd__decap_4
XFILLER_6_280 VGND VGND VPWR VPWR sky130_fd_sc_hd__decap_12
XANTENNA_mux_top_ipin_15.mux_l3_in_1__S mux_top_ipin_15.mux_l3_in_1_/S VGND VGND VPWR
+ VPWR sky130_fd_sc_hd__diode_2
Xmux_top_ipin_6.mux_l1_in_0_ chanx_right_in[1] chanx_left_in[1] mux_top_ipin_6.mux_l1_in_0_/S
+ mux_top_ipin_6.mux_l1_in_0_/X VGND VGND VPWR VPWR sky130_fd_sc_hd__mux2_1
XFILLER_4_206 VGND VGND VPWR VPWR sky130_fd_sc_hd__decap_4
XFILLER_20_88 VGND VGND VPWR VPWR sky130_fd_sc_hd__decap_4
XFILLER_29_31 VGND VGND VPWR VPWR sky130_fd_sc_hd__fill_1
XFILLER_28_173 VGND VGND VPWR VPWR sky130_fd_sc_hd__decap_12
XANTENNA_mux_top_ipin_2.mux_l1_in_0__A1 chanx_left_in[1] VGND VGND VPWR VPWR sky130_fd_sc_hd__diode_2
XANTENNA_mux_top_ipin_6.sky130_fd_sc_hd__buf_4_0__A mux_top_ipin_6.mux_l4_in_0_/X
+ VGND VGND VPWR VPWR sky130_fd_sc_hd__diode_2
XFILLER_3_283 VGND VGND VPWR VPWR sky130_fd_sc_hd__fill_2
XANTENNA_mux_top_ipin_14.mux_l2_in_1__A0 chanx_left_in[11] VGND VGND VPWR VPWR sky130_fd_sc_hd__diode_2
XFILLER_19_184 VGND VGND VPWR VPWR sky130_fd_sc_hd__fill_1
XFILLER_34_154 VGND VGND VPWR VPWR sky130_fd_sc_hd__decap_12
XFILLER_25_165 VGND VGND VPWR VPWR sky130_fd_sc_hd__fill_2
XFILLER_15_11 VGND VGND VPWR VPWR sky130_fd_sc_hd__fill_1
XFILLER_0_231 VGND VGND VPWR VPWR sky130_fd_sc_hd__fill_2
XFILLER_0_275 VGND VGND VPWR VPWR sky130_fd_sc_hd__decap_4
XPHY_193 VGND VPWR sky130_fd_sc_hd__tapvpwrvgnd_1
XPHY_182 VGND VPWR sky130_fd_sc_hd__tapvpwrvgnd_1
XPHY_171 VGND VPWR sky130_fd_sc_hd__tapvpwrvgnd_1
XANTENNA_mux_top_ipin_9.mux_l2_in_0__A0 chanx_left_in[2] VGND VGND VPWR VPWR sky130_fd_sc_hd__diode_2
XFILLER_16_143 VGND VGND VPWR VPWR sky130_fd_sc_hd__fill_2
XFILLER_16_154 VGND VGND VPWR VPWR sky130_fd_sc_hd__fill_1
XPHY_160 VGND VPWR sky130_fd_sc_hd__tapvpwrvgnd_1
Xmem_bottom_ipin_0.sky130_fd_sc_hd__dfxtp_1_3_ mux_bottom_ipin_0.mux_l3_in_1_/S mux_bottom_ipin_0.mux_l4_in_0_/S
+ clkbuf_3_2_0_prog_clk/X VGND VGND VPWR VPWR sky130_fd_sc_hd__dfxtp_1
XANTENNA_mux_top_ipin_0.mux_l1_in_2__A1 chanx_left_in[5] VGND VGND VPWR VPWR sky130_fd_sc_hd__diode_2
XANTENNA_mux_top_ipin_12.mux_l2_in_3__A0 _26_/HI VGND VGND VPWR VPWR sky130_fd_sc_hd__diode_2
XFILLER_13_179 VGND VGND VPWR VPWR sky130_fd_sc_hd__decap_4
XANTENNA_mux_top_ipin_14.mux_l3_in_0__A0 mux_top_ipin_14.mux_l2_in_1_/X VGND VGND
+ VPWR VPWR sky130_fd_sc_hd__diode_2
XFILLER_21_190 VGND VGND VPWR VPWR sky130_fd_sc_hd__fill_2
XFILLER_3_14 VGND VGND VPWR VPWR sky130_fd_sc_hd__fill_2
XANTENNA_mux_top_ipin_7.mux_l2_in_2__A0 chanx_left_in[18] VGND VGND VPWR VPWR sky130_fd_sc_hd__diode_2
XANTENNA_mux_top_ipin_7.mux_l1_in_0__S mux_top_ipin_7.mux_l1_in_0_/S VGND VGND VPWR
+ VPWR sky130_fd_sc_hd__diode_2
XFILLER_12_190 VGND VGND VPWR VPWR sky130_fd_sc_hd__decap_8
XANTENNA_mem_top_ipin_14.sky130_fd_sc_hd__dfxtp_1_2__D mux_top_ipin_14.mux_l2_in_1_/S
+ VGND VGND VPWR VPWR sky130_fd_sc_hd__diode_2
XANTENNA_mem_top_ipin_4.sky130_fd_sc_hd__dfxtp_1_2__D mux_top_ipin_4.mux_l2_in_0_/S
+ VGND VGND VPWR VPWR sky130_fd_sc_hd__diode_2
XFILLER_27_205 VGND VGND VPWR VPWR sky130_fd_sc_hd__fill_2
XFILLER_10_105 VGND VGND VPWR VPWR sky130_fd_sc_hd__decap_4
XFILLER_12_23 VGND VGND VPWR VPWR sky130_fd_sc_hd__fill_2
XANTENNA_mux_top_ipin_0.mux_l2_in_1__A1 mux_top_ipin_0.mux_l1_in_2_/X VGND VGND VPWR
+ VPWR sky130_fd_sc_hd__diode_2
XFILLER_26_271 VGND VGND VPWR VPWR sky130_fd_sc_hd__decap_4
XFILLER_5_120 VGND VGND VPWR VPWR sky130_fd_sc_hd__fill_2
XFILLER_5_175 VGND VGND VPWR VPWR sky130_fd_sc_hd__fill_2
X_64_ chanx_left_in[14] chanx_right_out[14] VGND VGND VPWR VPWR sky130_fd_sc_hd__buf_2
XFILLER_32_252 VGND VGND VPWR VPWR sky130_fd_sc_hd__decap_12
XFILLER_24_219 VGND VGND VPWR VPWR sky130_fd_sc_hd__decap_4
XFILLER_17_293 VGND VGND VPWR VPWR sky130_fd_sc_hd__decap_6
XFILLER_32_296 VGND VGND VPWR VPWR sky130_fd_sc_hd__decap_3
XANTENNA_mem_top_ipin_10.sky130_fd_sc_hd__dfxtp_1_3__CLK clkbuf_3_5_0_prog_clk/X VGND
+ VGND VPWR VPWR sky130_fd_sc_hd__diode_2
XFILLER_4_90 VGND VGND VPWR VPWR sky130_fd_sc_hd__fill_2
XFILLER_23_263 VGND VGND VPWR VPWR sky130_fd_sc_hd__fill_2
XFILLER_23_55 VGND VGND VPWR VPWR sky130_fd_sc_hd__fill_2
Xmux_top_ipin_4.sky130_fd_sc_hd__buf_4_0_ mux_top_ipin_4.mux_l4_in_0_/X bottom_grid_pin_4_
+ VGND VGND VPWR VPWR sky130_fd_sc_hd__buf_4
XFILLER_23_99 VGND VGND VPWR VPWR sky130_fd_sc_hd__fill_2
XANTENNA_mux_top_ipin_7.mux_l3_in_1__A0 mux_top_ipin_7.mux_l2_in_3_/X VGND VGND VPWR
+ VPWR sky130_fd_sc_hd__diode_2
XFILLER_2_189 VGND VGND VPWR VPWR sky130_fd_sc_hd__decap_8
XFILLER_0_26 VGND VGND VPWR VPWR sky130_fd_sc_hd__decap_3
XFILLER_0_48 VGND VGND VPWR VPWR sky130_fd_sc_hd__fill_1
XFILLER_9_57 VGND VGND VPWR VPWR sky130_fd_sc_hd__fill_2
XANTENNA_mux_top_ipin_9.sky130_fd_sc_hd__buf_4_0__A mux_top_ipin_9.mux_l4_in_0_/X
+ VGND VGND VPWR VPWR sky130_fd_sc_hd__diode_2
XANTENNA_mux_top_ipin_6.mux_l2_in_0__S mux_top_ipin_6.mux_l2_in_0_/S VGND VGND VPWR
+ VPWR sky130_fd_sc_hd__diode_2
X_47_ chanx_right_in[11] chanx_left_out[11] VGND VGND VPWR VPWR sky130_fd_sc_hd__buf_2
XANTENNA_mux_top_ipin_0.mux_l3_in_0__A1 mux_top_ipin_0.mux_l2_in_0_/X VGND VGND VPWR
+ VPWR sky130_fd_sc_hd__diode_2
XFILLER_34_32 VGND VGND VPWR VPWR sky130_fd_sc_hd__decap_12
XFILLER_11_200 VGND VGND VPWR VPWR sky130_fd_sc_hd__decap_3
XANTENNA_mux_bottom_ipin_0.mux_l1_in_0__S mux_bottom_ipin_0.mux_l1_in_1_/S VGND VGND
+ VPWR VPWR sky130_fd_sc_hd__diode_2
XANTENNA_mem_top_ipin_9.sky130_fd_sc_hd__dfxtp_1_1__D mux_top_ipin_9.mux_l1_in_0_/S
+ VGND VGND VPWR VPWR sky130_fd_sc_hd__diode_2
XFILLER_6_292 VGND VGND VPWR VPWR sky130_fd_sc_hd__decap_6
XANTENNA_mux_top_ipin_7.mux_l4_in_0__A0 mux_top_ipin_7.mux_l3_in_1_/X VGND VGND VPWR
+ VPWR sky130_fd_sc_hd__diode_2
XANTENNA_mux_top_ipin_1.mux_l2_in_2__S mux_top_ipin_1.mux_l2_in_0_/S VGND VGND VPWR
+ VPWR sky130_fd_sc_hd__diode_2
XFILLER_28_163 VGND VGND VPWR VPWR sky130_fd_sc_hd__fill_1
XFILLER_28_141 VGND VGND VPWR VPWR sky130_fd_sc_hd__decap_12
XFILLER_28_185 VGND VGND VPWR VPWR sky130_fd_sc_hd__decap_8
XFILLER_3_295 VGND VGND VPWR VPWR sky130_fd_sc_hd__decap_4
XFILLER_34_166 VGND VGND VPWR VPWR sky130_fd_sc_hd__decap_12
XANTENNA_mem_top_ipin_14.sky130_fd_sc_hd__dfxtp_1_0__CLK clkbuf_3_7_0_prog_clk/X VGND
+ VGND VPWR VPWR sky130_fd_sc_hd__diode_2
XANTENNA_mux_top_ipin_14.mux_l2_in_1__A1 chanx_right_in[3] VGND VGND VPWR VPWR sky130_fd_sc_hd__diode_2
XFILLER_19_163 VGND VGND VPWR VPWR sky130_fd_sc_hd__fill_2
XANTENNA_mux_top_ipin_5.mux_l3_in_0__S mux_top_ipin_5.mux_l3_in_1_/S VGND VGND VPWR
+ VPWR sky130_fd_sc_hd__diode_2
Xmux_top_ipin_13.mux_l1_in_0_ chanx_right_in[0] chanx_left_in[0] mux_top_ipin_13.mux_l1_in_0_/S
+ mux_top_ipin_13.mux_l1_in_0_/X VGND VGND VPWR VPWR sky130_fd_sc_hd__mux2_1
XFILLER_25_188 VGND VGND VPWR VPWR sky130_fd_sc_hd__fill_1
XFILLER_25_100 VGND VGND VPWR VPWR sky130_fd_sc_hd__fill_2
XFILLER_15_89 VGND VGND VPWR VPWR sky130_fd_sc_hd__fill_2
XFILLER_31_55 VGND VGND VPWR VPWR sky130_fd_sc_hd__decap_4
XANTENNA_mux_top_ipin_9.mux_l2_in_0__A1 mux_top_ipin_9.mux_l1_in_0_/X VGND VGND VPWR
+ VPWR sky130_fd_sc_hd__diode_2
XFILLER_16_122 VGND VGND VPWR VPWR sky130_fd_sc_hd__fill_1
Xmem_bottom_ipin_0.sky130_fd_sc_hd__dfxtp_1_2_ mux_bottom_ipin_0.mux_l2_in_3_/S mux_bottom_ipin_0.mux_l3_in_1_/S
+ clkbuf_3_3_0_prog_clk/X VGND VGND VPWR VPWR sky130_fd_sc_hd__dfxtp_1
XPHY_194 VGND VPWR sky130_fd_sc_hd__tapvpwrvgnd_1
XPHY_183 VGND VPWR sky130_fd_sc_hd__tapvpwrvgnd_1
XPHY_172 VGND VPWR sky130_fd_sc_hd__tapvpwrvgnd_1
XPHY_150 VGND VPWR sky130_fd_sc_hd__tapvpwrvgnd_1
XPHY_161 VGND VPWR sky130_fd_sc_hd__tapvpwrvgnd_1
Xclkbuf_2_1_0_prog_clk clkbuf_0_prog_clk/X clkbuf_3_3_0_prog_clk/A VGND VGND VPWR
+ VPWR sky130_fd_sc_hd__clkbuf_1
XANTENNA_mux_top_ipin_12.mux_l2_in_3__A1 chanx_right_in[17] VGND VGND VPWR VPWR sky130_fd_sc_hd__diode_2
XFILLER_26_66 VGND VGND VPWR VPWR sky130_fd_sc_hd__fill_2
XFILLER_26_11 VGND VGND VPWR VPWR sky130_fd_sc_hd__decap_12
XFILLER_9_107 VGND VGND VPWR VPWR sky130_fd_sc_hd__fill_2
XFILLER_9_118 VGND VGND VPWR VPWR sky130_fd_sc_hd__fill_2
XANTENNA_mux_top_ipin_11.mux_l1_in_0__A0 chanx_right_in[0] VGND VGND VPWR VPWR sky130_fd_sc_hd__diode_2
XFILLER_13_147 VGND VGND VPWR VPWR sky130_fd_sc_hd__fill_2
XANTENNA_mux_top_ipin_14.mux_l3_in_0__A1 mux_top_ipin_14.mux_l2_in_0_/X VGND VGND
+ VPWR VPWR sky130_fd_sc_hd__diode_2
X_80_ bottom_width_0_height_0__pin_0_ gfpga_pad_EMBEDDED_IO_SOC_OUT VGND VGND VPWR
+ VPWR sky130_fd_sc_hd__buf_2
XFILLER_3_59 VGND VGND VPWR VPWR sky130_fd_sc_hd__fill_2
XANTENNA_mux_top_ipin_7.mux_l2_in_2__A1 chanx_right_in[12] VGND VGND VPWR VPWR sky130_fd_sc_hd__diode_2
XFILLER_8_162 VGND VGND VPWR VPWR sky130_fd_sc_hd__fill_1
XANTENNA_mux_top_ipin_6.mux_l2_in_3__S mux_top_ipin_6.mux_l2_in_0_/S VGND VGND VPWR
+ VPWR sky130_fd_sc_hd__diode_2
XFILLER_27_217 VGND VGND VPWR VPWR sky130_fd_sc_hd__fill_1
XANTENNA_mux_top_ipin_4.mux_l4_in_0__S mux_top_ipin_4.mux_l4_in_0_/S VGND VGND VPWR
+ VPWR sky130_fd_sc_hd__diode_2
XFILLER_35_261 VGND VGND VPWR VPWR sky130_fd_sc_hd__decap_12
XFILLER_5_7 VGND VGND VPWR VPWR sky130_fd_sc_hd__fill_2
XANTENNA_mem_top_ipin_1.sky130_fd_sc_hd__dfxtp_1_0__CLK clkbuf_3_0_0_prog_clk/X VGND
+ VGND VPWR VPWR sky130_fd_sc_hd__diode_2
XFILLER_18_206 VGND VGND VPWR VPWR sky130_fd_sc_hd__decap_3
XFILLER_5_165 VGND VGND VPWR VPWR sky130_fd_sc_hd__fill_2
X_63_ chanx_left_in[15] chanx_right_out[15] VGND VGND VPWR VPWR sky130_fd_sc_hd__buf_2
XFILLER_32_264 VGND VGND VPWR VPWR sky130_fd_sc_hd__fill_1
XFILLER_17_272 VGND VGND VPWR VPWR sky130_fd_sc_hd__decap_4
XFILLER_23_34 VGND VGND VPWR VPWR sky130_fd_sc_hd__fill_2
XFILLER_2_113 VGND VGND VPWR VPWR sky130_fd_sc_hd__decap_12
XANTENNA_mux_top_ipin_4.mux_l1_in_1__A0 chanx_right_in[3] VGND VGND VPWR VPWR sky130_fd_sc_hd__diode_2
XANTENNA_mux_top_ipin_7.mux_l3_in_1__A1 mux_top_ipin_7.mux_l2_in_2_/X VGND VGND VPWR
+ VPWR sky130_fd_sc_hd__diode_2
XFILLER_9_36 VGND VGND VPWR VPWR sky130_fd_sc_hd__fill_2
XFILLER_29_3 VGND VGND VPWR VPWR sky130_fd_sc_hd__decap_6
XFILLER_1_190 VGND VGND VPWR VPWR sky130_fd_sc_hd__fill_2
XANTENNA_mem_top_ipin_4.sky130_fd_sc_hd__dfxtp_1_1__CLK clkbuf_3_1_0_prog_clk/X VGND
+ VGND VPWR VPWR sky130_fd_sc_hd__diode_2
X_46_ chanx_right_in[12] chanx_left_out[12] VGND VGND VPWR VPWR sky130_fd_sc_hd__buf_2
XFILLER_20_267 VGND VGND VPWR VPWR sky130_fd_sc_hd__decap_8
XANTENNA_mux_top_ipin_12.mux_l2_in_1__S mux_top_ipin_12.mux_l2_in_2_/S VGND VGND VPWR
+ VPWR sky130_fd_sc_hd__diode_2
XFILLER_34_44 VGND VGND VPWR VPWR sky130_fd_sc_hd__decap_12
XFILLER_18_78 VGND VGND VPWR VPWR sky130_fd_sc_hd__decap_3
XFILLER_7_249 VGND VGND VPWR VPWR sky130_fd_sc_hd__fill_2
XFILLER_11_234 VGND VGND VPWR VPWR sky130_fd_sc_hd__fill_2
XFILLER_11_245 VGND VGND VPWR VPWR sky130_fd_sc_hd__decap_6
XFILLER_6_271 VGND VGND VPWR VPWR sky130_fd_sc_hd__decap_4
X_29_ _29_/HI _29_/LO VGND VGND VPWR VPWR sky130_fd_sc_hd__conb_1
XANTENNA_mux_top_ipin_7.mux_l4_in_0__A1 mux_top_ipin_7.mux_l3_in_0_/X VGND VGND VPWR
+ VPWR sky130_fd_sc_hd__diode_2
XANTENNA_mux_top_ipin_4.mux_l2_in_0__A0 mux_top_ipin_4.mux_l1_in_1_/X VGND VGND VPWR
+ VPWR sky130_fd_sc_hd__diode_2
XFILLER_4_219 VGND VGND VPWR VPWR sky130_fd_sc_hd__decap_6
XFILLER_29_44 VGND VGND VPWR VPWR sky130_fd_sc_hd__fill_2
XFILLER_20_46 VGND VGND VPWR VPWR sky130_fd_sc_hd__fill_2
XANTENNA_mem_top_ipin_7.sky130_fd_sc_hd__dfxtp_1_2__CLK clkbuf_3_6_0_prog_clk/X VGND
+ VGND VPWR VPWR sky130_fd_sc_hd__diode_2
XFILLER_28_120 VGND VGND VPWR VPWR sky130_fd_sc_hd__decap_8
Xmux_top_ipin_11.sky130_fd_sc_hd__buf_4_0_ mux_top_ipin_11.mux_l4_in_0_/X bottom_grid_pin_11_
+ VGND VGND VPWR VPWR sky130_fd_sc_hd__buf_4
Xclkbuf_3_3_0_prog_clk clkbuf_3_3_0_prog_clk/A clkbuf_3_3_0_prog_clk/X VGND VGND VPWR
+ VPWR sky130_fd_sc_hd__clkbuf_1
XANTENNA_mux_top_ipin_10.sky130_fd_sc_hd__buf_4_0__A mux_top_ipin_10.mux_l4_in_0_/X
+ VGND VGND VPWR VPWR sky130_fd_sc_hd__diode_2
XFILLER_19_131 VGND VGND VPWR VPWR sky130_fd_sc_hd__fill_2
XFILLER_34_178 VGND VGND VPWR VPWR sky130_fd_sc_hd__decap_12
Xmux_bottom_ipin_0.sky130_fd_sc_hd__buf_4_0_ mux_bottom_ipin_0.mux_l4_in_0_/X top_grid_pin_0_
+ VGND VGND VPWR VPWR sky130_fd_sc_hd__buf_4
XFILLER_19_175 VGND VGND VPWR VPWR sky130_fd_sc_hd__fill_2
XFILLER_25_123 VGND VGND VPWR VPWR sky130_fd_sc_hd__decap_4
XANTENNA_mux_top_ipin_2.mux_l2_in_2__A0 chanx_left_in[15] VGND VGND VPWR VPWR sky130_fd_sc_hd__diode_2
XANTENNA_mux_top_ipin_11.mux_l3_in_1__S mux_top_ipin_11.mux_l3_in_1_/S VGND VGND VPWR
+ VPWR sky130_fd_sc_hd__diode_2
XFILLER_15_46 VGND VGND VPWR VPWR sky130_fd_sc_hd__fill_2
XFILLER_15_57 VGND VGND VPWR VPWR sky130_fd_sc_hd__fill_2
XFILLER_31_78 VGND VGND VPWR VPWR sky130_fd_sc_hd__fill_2
XFILLER_0_255 VGND VGND VPWR VPWR sky130_fd_sc_hd__fill_2
XANTENNA_mem_top_ipin_11.sky130_fd_sc_hd__dfxtp_1_1__D mux_top_ipin_11.mux_l1_in_2_/S
+ VGND VGND VPWR VPWR sky130_fd_sc_hd__diode_2
XANTENNA_mem_top_ipin_1.sky130_fd_sc_hd__dfxtp_1_1__D mux_top_ipin_1.mux_l1_in_0_/S
+ VGND VGND VPWR VPWR sky130_fd_sc_hd__diode_2
Xmem_bottom_ipin_0.sky130_fd_sc_hd__dfxtp_1_1_ mux_bottom_ipin_0.mux_l1_in_1_/S mux_bottom_ipin_0.mux_l2_in_3_/S
+ clkbuf_3_3_0_prog_clk/X VGND VGND VPWR VPWR sky130_fd_sc_hd__dfxtp_1
XFILLER_31_159 VGND VGND VPWR VPWR sky130_fd_sc_hd__fill_2
XPHY_195 VGND VPWR sky130_fd_sc_hd__tapvpwrvgnd_1
XPHY_184 VGND VPWR sky130_fd_sc_hd__tapvpwrvgnd_1
XPHY_173 VGND VPWR sky130_fd_sc_hd__tapvpwrvgnd_1
XPHY_140 VGND VPWR sky130_fd_sc_hd__tapvpwrvgnd_1
XPHY_151 VGND VPWR sky130_fd_sc_hd__tapvpwrvgnd_1
XPHY_162 VGND VPWR sky130_fd_sc_hd__tapvpwrvgnd_1
XFILLER_22_137 VGND VGND VPWR VPWR sky130_fd_sc_hd__decap_12
XFILLER_30_170 VGND VGND VPWR VPWR sky130_fd_sc_hd__decap_12
XFILLER_21_170 VGND VGND VPWR VPWR sky130_fd_sc_hd__fill_2
XANTENNA_mux_top_ipin_11.mux_l1_in_0__A1 chanx_left_in[0] VGND VGND VPWR VPWR sky130_fd_sc_hd__diode_2
XFILLER_3_27 VGND VGND VPWR VPWR sky130_fd_sc_hd__decap_4
Xmux_top_ipin_2.mux_l2_in_3_ _30_/HI chanx_right_in[15] mux_top_ipin_2.mux_l2_in_2_/S
+ mux_top_ipin_2.mux_l2_in_3_/X VGND VGND VPWR VPWR sky130_fd_sc_hd__mux2_1
XANTENNA_mux_top_ipin_2.mux_l3_in_1__A0 mux_top_ipin_2.mux_l2_in_3_/X VGND VGND VPWR
+ VPWR sky130_fd_sc_hd__diode_2
XFILLER_35_273 VGND VGND VPWR VPWR sky130_fd_sc_hd__decap_6
XFILLER_26_251 VGND VGND VPWR VPWR sky130_fd_sc_hd__decap_4
XFILLER_26_240 VGND VGND VPWR VPWR sky130_fd_sc_hd__decap_4
X_62_ chanx_left_in[16] chanx_right_out[16] VGND VGND VPWR VPWR sky130_fd_sc_hd__buf_2
XFILLER_17_251 VGND VGND VPWR VPWR sky130_fd_sc_hd__fill_2
XFILLER_32_276 VGND VGND VPWR VPWR sky130_fd_sc_hd__decap_6
XFILLER_4_70 VGND VGND VPWR VPWR sky130_fd_sc_hd__decap_12
XANTENNA_mux_top_ipin_3.mux_l1_in_0__S mux_top_ipin_3.mux_l1_in_2_/S VGND VGND VPWR
+ VPWR sky130_fd_sc_hd__diode_2
XANTENNA_mem_top_ipin_6.sky130_fd_sc_hd__dfxtp_1_0__D mux_top_ipin_5.mux_l4_in_0_/S
+ VGND VGND VPWR VPWR sky130_fd_sc_hd__diode_2
XFILLER_23_287 VGND VGND VPWR VPWR sky130_fd_sc_hd__decap_12
XFILLER_2_125 VGND VGND VPWR VPWR sky130_fd_sc_hd__decap_12
XANTENNA_mux_top_ipin_4.mux_l1_in_1__A1 chanx_left_in[3] VGND VGND VPWR VPWR sky130_fd_sc_hd__diode_2
XFILLER_0_17 VGND VGND VPWR VPWR sky130_fd_sc_hd__fill_2
XANTENNA_mux_top_ipin_2.mux_l4_in_0__A0 mux_top_ipin_2.mux_l3_in_1_/X VGND VGND VPWR
+ VPWR sky130_fd_sc_hd__diode_2
XFILLER_14_298 VGND VGND VPWR VPWR sky130_fd_sc_hd__fill_1
XANTENNA_mux_top_ipin_13.sky130_fd_sc_hd__buf_4_0__A mux_top_ipin_13.mux_l4_in_0_/X
+ VGND VGND VPWR VPWR sky130_fd_sc_hd__diode_2
X_45_ chanx_right_in[13] chanx_left_out[13] VGND VGND VPWR VPWR sky130_fd_sc_hd__buf_2
XFILLER_20_224 VGND VGND VPWR VPWR sky130_fd_sc_hd__decap_12
XFILLER_20_213 VGND VGND VPWR VPWR sky130_fd_sc_hd__fill_1
Xmux_top_ipin_2.mux_l4_in_0_ mux_top_ipin_2.mux_l3_in_1_/X mux_top_ipin_2.mux_l3_in_0_/X
+ mux_top_ipin_2.mux_l4_in_0_/S mux_top_ipin_2.mux_l4_in_0_/X VGND VGND VPWR VPWR
+ sky130_fd_sc_hd__mux2_1
XFILLER_18_46 VGND VGND VPWR VPWR sky130_fd_sc_hd__decap_3
XFILLER_34_56 VGND VGND VPWR VPWR sky130_fd_sc_hd__decap_12
XFILLER_11_257 VGND VGND VPWR VPWR sky130_fd_sc_hd__fill_2
XFILLER_11_279 VGND VGND VPWR VPWR sky130_fd_sc_hd__fill_2
X_28_ _28_/HI _28_/LO VGND VGND VPWR VPWR sky130_fd_sc_hd__conb_1
XANTENNA_mux_top_ipin_4.mux_l2_in_0__A1 mux_top_ipin_4.mux_l1_in_0_/X VGND VGND VPWR
+ VPWR sky130_fd_sc_hd__diode_2