* NGSPICE file created from cbx_1__1_.ext - technology: EFS8A

* Black-box entry subcircuit for scs8hd_diode_2 abstract view
.subckt scs8hd_diode_2 DIODE vgnd vpwr
.ends

* Black-box entry subcircuit for scs8hd_fill_2 abstract view
.subckt scs8hd_fill_2 vpwr vgnd
.ends

* Black-box entry subcircuit for scs8hd_decap_3 abstract view
.subckt scs8hd_decap_3 vgnd vpwr
.ends

* Black-box entry subcircuit for scs8hd_decap_6 abstract view
.subckt scs8hd_decap_6 vgnd vpwr
.ends

* Black-box entry subcircuit for scs8hd_decap_12 abstract view
.subckt scs8hd_decap_12 vgnd vpwr
.ends

* Black-box entry subcircuit for scs8hd_mux2_1 abstract view
.subckt scs8hd_mux2_1 A0 A1 S X vgnd vpwr
.ends

* Black-box entry subcircuit for scs8hd_decap_4 abstract view
.subckt scs8hd_decap_4 vgnd vpwr
.ends

* Black-box entry subcircuit for scs8hd_buf_2 abstract view
.subckt scs8hd_buf_2 A X vgnd vpwr
.ends

* Black-box entry subcircuit for scs8hd_dfxbp_1 abstract view
.subckt scs8hd_dfxbp_1 CLK D Q QN vgnd vpwr
.ends

* Black-box entry subcircuit for scs8hd_buf_1 abstract view
.subckt scs8hd_buf_1 A X vgnd vpwr
.ends

* Black-box entry subcircuit for scs8hd_fill_1 abstract view
.subckt scs8hd_fill_1 vgnd vpwr
.ends

* Black-box entry subcircuit for scs8hd_decap_8 abstract view
.subckt scs8hd_decap_8 vgnd vpwr
.ends

* Black-box entry subcircuit for scs8hd_tapvpwrvgnd_1 abstract view
.subckt scs8hd_tapvpwrvgnd_1 vgnd vpwr
.ends

* Black-box entry subcircuit for scs8hd_conb_1 abstract view
.subckt scs8hd_conb_1 HI LO vgnd vpwr
.ends

.subckt cbx_1__1_ ccff_head ccff_tail chanx_left_in[0] chanx_left_in[10] chanx_left_in[11]
+ chanx_left_in[12] chanx_left_in[13] chanx_left_in[14] chanx_left_in[15] chanx_left_in[16]
+ chanx_left_in[17] chanx_left_in[18] chanx_left_in[19] chanx_left_in[1] chanx_left_in[2]
+ chanx_left_in[3] chanx_left_in[4] chanx_left_in[5] chanx_left_in[6] chanx_left_in[7]
+ chanx_left_in[8] chanx_left_in[9] chanx_left_out[0] chanx_left_out[10] chanx_left_out[11]
+ chanx_left_out[12] chanx_left_out[13] chanx_left_out[14] chanx_left_out[15] chanx_left_out[16]
+ chanx_left_out[17] chanx_left_out[18] chanx_left_out[19] chanx_left_out[1] chanx_left_out[2]
+ chanx_left_out[3] chanx_left_out[4] chanx_left_out[5] chanx_left_out[6] chanx_left_out[7]
+ chanx_left_out[8] chanx_left_out[9] chanx_right_in[0] chanx_right_in[10] chanx_right_in[11]
+ chanx_right_in[12] chanx_right_in[13] chanx_right_in[14] chanx_right_in[15] chanx_right_in[16]
+ chanx_right_in[17] chanx_right_in[18] chanx_right_in[19] chanx_right_in[1] chanx_right_in[2]
+ chanx_right_in[3] chanx_right_in[4] chanx_right_in[5] chanx_right_in[6] chanx_right_in[7]
+ chanx_right_in[8] chanx_right_in[9] chanx_right_out[0] chanx_right_out[10] chanx_right_out[11]
+ chanx_right_out[12] chanx_right_out[13] chanx_right_out[14] chanx_right_out[15]
+ chanx_right_out[16] chanx_right_out[17] chanx_right_out[18] chanx_right_out[19]
+ chanx_right_out[1] chanx_right_out[2] chanx_right_out[3] chanx_right_out[4] chanx_right_out[5]
+ chanx_right_out[6] chanx_right_out[7] chanx_right_out[8] chanx_right_out[9] prog_clk
+ top_grid_pin_16_ top_grid_pin_17_ top_grid_pin_18_ top_grid_pin_19_ top_grid_pin_20_
+ top_grid_pin_21_ top_grid_pin_22_ top_grid_pin_23_ top_grid_pin_24_ top_grid_pin_25_
+ top_grid_pin_26_ top_grid_pin_27_ top_grid_pin_28_ top_grid_pin_29_ top_grid_pin_30_
+ top_grid_pin_31_ vpwr vgnd
XANTENNA_mem_bottom_ipin_15.scs8hd_dfxbp_1_1__D mux_bottom_ipin_15.mux_l1_in_0_/S
+ vgnd vpwr scs8hd_diode_2
XFILLER_22_188 vpwr vgnd scs8hd_fill_2
XFILLER_7_7 vpwr vgnd scs8hd_fill_2
XFILLER_26_41 vgnd vpwr scs8hd_decap_3
XFILLER_9_115 vgnd vpwr scs8hd_decap_6
XFILLER_9_159 vgnd vpwr scs8hd_decap_12
Xmux_bottom_ipin_12.mux_l2_in_3_ _23_/HI chanx_right_in[16] mux_bottom_ipin_12.mux_l2_in_2_/S
+ mux_bottom_ipin_12.mux_l2_in_3_/X vgnd vpwr scs8hd_mux2_1
XFILLER_35_280 vgnd vpwr scs8hd_decap_12
Xmux_bottom_ipin_7.mux_l2_in_1_ chanx_left_in[11] chanx_right_in[3] mux_bottom_ipin_7.mux_l2_in_1_/S
+ mux_bottom_ipin_7.mux_l2_in_1_/X vgnd vpwr scs8hd_mux2_1
XFILLER_6_129 vgnd vpwr scs8hd_decap_12
XFILLER_12_10 vpwr vgnd scs8hd_fill_2
XFILLER_12_87 vgnd vpwr scs8hd_decap_4
XFILLER_18_269 vgnd vpwr scs8hd_decap_3
XANTENNA_mux_bottom_ipin_9.mux_l2_in_3__A1 chanx_right_in[19] vgnd vpwr scs8hd_diode_2
XFILLER_5_184 vgnd vpwr scs8hd_decap_12
X_66_ chanx_left_in[5] chanx_right_out[5] vgnd vpwr scs8hd_buf_2
XFILLER_17_291 vpwr vgnd scs8hd_fill_2
XFILLER_32_250 vpwr vgnd scs8hd_fill_2
XANTENNA_mux_bottom_ipin_4.mux_l1_in_0__S mux_bottom_ipin_4.mux_l1_in_0_/S vgnd vpwr
+ scs8hd_diode_2
XANTENNA_mux_bottom_ipin_8.mux_l1_in_0__A0 chanx_right_in[0] vgnd vpwr scs8hd_diode_2
XFILLER_15_228 vpwr vgnd scs8hd_fill_2
XANTENNA_mem_bottom_ipin_1.scs8hd_dfxbp_1_1__D mux_bottom_ipin_1.mux_l1_in_1_/S vgnd
+ vpwr scs8hd_diode_2
XFILLER_23_53 vpwr vgnd scs8hd_fill_2
XFILLER_2_154 vgnd vpwr scs8hd_decap_12
Xmem_bottom_ipin_15.scs8hd_dfxbp_1_3_ prog_clk mux_bottom_ipin_15.mux_l3_in_1_/S ccff_tail
+ mem_bottom_ipin_15.scs8hd_dfxbp_1_3_/QN vgnd vpwr scs8hd_dfxbp_1
XFILLER_17_9 vpwr vgnd scs8hd_fill_2
XFILLER_9_11 vpwr vgnd scs8hd_fill_2
X_49_ chanx_right_in[2] chanx_left_out[2] vgnd vpwr scs8hd_buf_2
XFILLER_20_242 vgnd vpwr scs8hd_decap_4
XFILLER_20_297 vpwr vgnd scs8hd_fill_2
Xmux_bottom_ipin_12.mux_l4_in_0_ mux_bottom_ipin_12.mux_l3_in_1_/X mux_bottom_ipin_12.mux_l3_in_0_/X
+ mux_bottom_ipin_12.mux_l4_in_0_/S mux_bottom_ipin_12.mux_l4_in_0_/X vgnd vpwr scs8hd_mux2_1
Xmux_bottom_ipin_2.mux_l2_in_0_ chanx_left_in[2] mux_bottom_ipin_2.mux_l1_in_0_/X
+ mux_bottom_ipin_2.mux_l2_in_3_/S mux_bottom_ipin_2.mux_l2_in_0_/X vgnd vpwr scs8hd_mux2_1
XFILLER_7_279 vpwr vgnd scs8hd_fill_2
XFILLER_7_257 vgnd vpwr scs8hd_decap_12
XANTENNA_mux_bottom_ipin_13.mux_l2_in_2__S mux_bottom_ipin_13.mux_l2_in_3_/S vgnd
+ vpwr scs8hd_diode_2
XANTENNA_mux_bottom_ipin_15.mux_l2_in_1__A1 chanx_right_in[3] vgnd vpwr scs8hd_diode_2
XFILLER_4_227 vgnd vpwr scs8hd_decap_12
XFILLER_20_32 vpwr vgnd scs8hd_fill_2
XFILLER_20_76 vgnd vpwr scs8hd_decap_3
XANTENNA_mux_bottom_ipin_3.mux_l2_in_0__S mux_bottom_ipin_3.mux_l2_in_0_/S vgnd vpwr
+ scs8hd_diode_2
Xmux_bottom_ipin_10.scs8hd_buf_4_0_ mux_bottom_ipin_10.mux_l4_in_0_/X top_grid_pin_26_
+ vgnd vpwr scs8hd_buf_1
XFILLER_29_30 vpwr vgnd scs8hd_fill_2
XFILLER_6_23 vgnd vpwr scs8hd_decap_4
XFILLER_6_56 vgnd vpwr scs8hd_decap_12
XFILLER_3_293 vgnd vpwr scs8hd_decap_6
XFILLER_19_172 vgnd vpwr scs8hd_fill_1
Xmux_bottom_ipin_12.mux_l3_in_1_ mux_bottom_ipin_12.mux_l2_in_3_/X mux_bottom_ipin_12.mux_l2_in_2_/X
+ mux_bottom_ipin_12.mux_l3_in_1_/S mux_bottom_ipin_12.mux_l3_in_1_/X vgnd vpwr scs8hd_mux2_1
XANTENNA_mux_bottom_ipin_9.mux_l1_in_1__S mux_bottom_ipin_9.mux_l1_in_2_/S vgnd vpwr
+ scs8hd_diode_2
XANTENNA_mux_bottom_ipin_6.mux_l2_in_1__A0 chanx_left_in[10] vgnd vpwr scs8hd_diode_2
XFILLER_1_208 vgnd vpwr scs8hd_decap_12
XFILLER_17_109 vpwr vgnd scs8hd_fill_2
XANTENNA_mux_bottom_ipin_13.mux_l2_in_3__A1 chanx_right_in[17] vgnd vpwr scs8hd_diode_2
XFILLER_31_53 vgnd vpwr scs8hd_decap_8
XFILLER_15_43 vgnd vpwr scs8hd_decap_3
XFILLER_0_230 vgnd vpwr scs8hd_decap_12
XFILLER_31_101 vpwr vgnd scs8hd_fill_2
XFILLER_16_175 vgnd vpwr scs8hd_decap_4
XPHY_170 vgnd vpwr scs8hd_tapvpwrvgnd_1
XPHY_192 vgnd vpwr scs8hd_tapvpwrvgnd_1
XANTENNA_mux_bottom_ipin_15.mux_l3_in_0__A1 mux_bottom_ipin_15.mux_l2_in_0_/X vgnd
+ vpwr scs8hd_diode_2
XANTENNA_mux_bottom_ipin_12.mux_l1_in_0__A0 chanx_right_in[0] vgnd vpwr scs8hd_diode_2
XPHY_181 vgnd vpwr scs8hd_tapvpwrvgnd_1
XANTENNA_mem_bottom_ipin_2.scs8hd_dfxbp_1_2__CLK prog_clk vgnd vpwr scs8hd_diode_2
XANTENNA_mux_bottom_ipin_4.mux_l2_in_3__A0 _29_/HI vgnd vpwr scs8hd_diode_2
XANTENNA_mux_bottom_ipin_2.mux_l3_in_0__S mux_bottom_ipin_2.mux_l3_in_1_/S vgnd vpwr
+ scs8hd_diode_2
XFILLER_26_97 vgnd vpwr scs8hd_decap_4
XANTENNA_mem_bottom_ipin_0.scs8hd_dfxbp_1_0__CLK prog_clk vgnd vpwr scs8hd_diode_2
XFILLER_13_123 vgnd vpwr scs8hd_decap_12
XANTENNA_mem_bottom_ipin_3.scs8hd_dfxbp_1_0__D mux_bottom_ipin_2.mux_l4_in_0_/S vgnd
+ vpwr scs8hd_diode_2
Xmux_bottom_ipin_12.mux_l2_in_2_ chanx_left_in[16] chanx_right_in[12] mux_bottom_ipin_12.mux_l2_in_2_/S
+ mux_bottom_ipin_12.mux_l2_in_2_/X vgnd vpwr scs8hd_mux2_1
XANTENNA_mux_bottom_ipin_6.mux_l3_in_0__A0 mux_bottom_ipin_6.mux_l2_in_1_/X vgnd vpwr
+ scs8hd_diode_2
Xmux_bottom_ipin_7.mux_l2_in_0_ chanx_left_in[3] mux_bottom_ipin_7.mux_l1_in_0_/X
+ mux_bottom_ipin_7.mux_l2_in_1_/S mux_bottom_ipin_7.mux_l2_in_0_/X vgnd vpwr scs8hd_mux2_1
XANTENNA_mux_bottom_ipin_8.mux_l2_in_1__S mux_bottom_ipin_8.mux_l2_in_2_/S vgnd vpwr
+ scs8hd_diode_2
XFILLER_35_292 vgnd vpwr scs8hd_decap_6
XFILLER_18_248 vpwr vgnd scs8hd_fill_2
XFILLER_5_196 vgnd vpwr scs8hd_decap_12
X_65_ chanx_left_in[6] chanx_right_out[6] vgnd vpwr scs8hd_buf_2
XANTENNA_mux_bottom_ipin_8.mux_l1_in_0__A1 chanx_left_in[0] vgnd vpwr scs8hd_diode_2
Xmem_bottom_ipin_5.scs8hd_dfxbp_1_3_ prog_clk mux_bottom_ipin_5.mux_l3_in_1_/S mux_bottom_ipin_5.mux_l4_in_0_/S
+ mem_bottom_ipin_5.scs8hd_dfxbp_1_3_/QN vgnd vpwr scs8hd_dfxbp_1
XANTENNA_mux_bottom_ipin_3.mux_l2_in_3__S mux_bottom_ipin_3.mux_l2_in_0_/S vgnd vpwr
+ scs8hd_diode_2
XFILLER_23_295 vgnd vpwr scs8hd_decap_4
XANTENNA_mux_bottom_ipin_1.mux_l4_in_0__S mux_bottom_ipin_1.mux_l4_in_0_/S vgnd vpwr
+ scs8hd_diode_2
XANTENNA_mem_bottom_ipin_14.scs8hd_dfxbp_1_3__CLK prog_clk vgnd vpwr scs8hd_diode_2
XFILLER_23_65 vgnd vpwr scs8hd_decap_4
XFILLER_2_166 vgnd vpwr scs8hd_decap_12
XFILLER_0_58 vpwr vgnd scs8hd_fill_2
XANTENNA_mux_bottom_ipin_10.mux_l2_in_1__A0 chanx_left_in[6] vgnd vpwr scs8hd_diode_2
XFILLER_14_240 vgnd vpwr scs8hd_fill_1
Xmem_bottom_ipin_15.scs8hd_dfxbp_1_2_ prog_clk mux_bottom_ipin_15.mux_l2_in_2_/S mux_bottom_ipin_15.mux_l3_in_1_/S
+ mem_bottom_ipin_15.scs8hd_dfxbp_1_2_/QN vgnd vpwr scs8hd_dfxbp_1
XFILLER_9_34 vgnd vpwr scs8hd_decap_4
XFILLER_14_262 vgnd vpwr scs8hd_decap_8
XFILLER_14_284 vgnd vpwr scs8hd_decap_12
Xmux_bottom_ipin_7.scs8hd_buf_4_0_ mux_bottom_ipin_7.mux_l4_in_0_/X top_grid_pin_23_
+ vgnd vpwr scs8hd_buf_1
XANTENNA_mem_bottom_ipin_12.scs8hd_dfxbp_1_1__CLK prog_clk vgnd vpwr scs8hd_diode_2
X_48_ chanx_right_in[3] chanx_left_out[3] vgnd vpwr scs8hd_buf_2
XANTENNA_mux_bottom_ipin_7.mux_l3_in_1__S mux_bottom_ipin_7.mux_l3_in_1_/S vgnd vpwr
+ scs8hd_diode_2
XFILLER_20_210 vpwr vgnd scs8hd_fill_2
XFILLER_11_243 vgnd vpwr scs8hd_fill_1
XFILLER_7_269 vgnd vpwr scs8hd_decap_4
XFILLER_6_280 vgnd vpwr scs8hd_decap_12
XFILLER_4_239 vgnd vpwr scs8hd_decap_12
XANTENNA_mux_bottom_ipin_10.mux_l3_in_0__A0 mux_bottom_ipin_10.mux_l2_in_1_/X vgnd
+ vpwr scs8hd_diode_2
XFILLER_20_22 vpwr vgnd scs8hd_fill_2
XFILLER_28_151 vpwr vgnd scs8hd_fill_2
XANTENNA_mem_bottom_ipin_3.scs8hd_dfxbp_1_3__D mux_bottom_ipin_3.mux_l3_in_0_/S vgnd
+ vpwr scs8hd_diode_2
XFILLER_6_68 vgnd vpwr scs8hd_decap_12
XFILLER_19_140 vpwr vgnd scs8hd_fill_2
XFILLER_19_184 vgnd vpwr scs8hd_decap_4
XANTENNA_mux_bottom_ipin_14.scs8hd_buf_4_0__A mux_bottom_ipin_14.mux_l4_in_0_/X vgnd
+ vpwr scs8hd_diode_2
XFILLER_34_198 vgnd vpwr scs8hd_decap_12
XFILLER_34_154 vpwr vgnd scs8hd_fill_2
Xmux_bottom_ipin_12.mux_l3_in_0_ mux_bottom_ipin_12.mux_l2_in_1_/X mux_bottom_ipin_12.mux_l2_in_0_/X
+ mux_bottom_ipin_12.mux_l3_in_1_/S mux_bottom_ipin_12.mux_l3_in_0_/X vgnd vpwr scs8hd_mux2_1
Xmux_bottom_ipin_2.mux_l1_in_0_ chanx_right_in[0] chanx_left_in[0] mux_bottom_ipin_2.mux_l1_in_0_/S
+ mux_bottom_ipin_2.mux_l1_in_0_/X vgnd vpwr scs8hd_mux2_1
XANTENNA_mux_bottom_ipin_6.mux_l2_in_1__A1 chanx_right_in[2] vgnd vpwr scs8hd_diode_2
XFILLER_31_21 vpwr vgnd scs8hd_fill_2
XFILLER_31_10 vpwr vgnd scs8hd_fill_2
XFILLER_31_98 vgnd vpwr scs8hd_fill_1
XFILLER_0_242 vgnd vpwr scs8hd_decap_6
XFILLER_31_179 vpwr vgnd scs8hd_fill_2
XFILLER_31_146 vpwr vgnd scs8hd_fill_2
XPHY_193 vgnd vpwr scs8hd_tapvpwrvgnd_1
XFILLER_16_154 vgnd vpwr scs8hd_decap_8
XPHY_160 vgnd vpwr scs8hd_tapvpwrvgnd_1
XPHY_171 vgnd vpwr scs8hd_tapvpwrvgnd_1
XPHY_182 vgnd vpwr scs8hd_tapvpwrvgnd_1
XANTENNA_mux_bottom_ipin_12.mux_l1_in_0__A1 chanx_left_in[0] vgnd vpwr scs8hd_diode_2
XFILLER_22_135 vpwr vgnd scs8hd_fill_2
XANTENNA_mux_bottom_ipin_4.mux_l2_in_3__A1 chanx_right_in[14] vgnd vpwr scs8hd_diode_2
XFILLER_26_54 vpwr vgnd scs8hd_fill_2
XFILLER_13_135 vgnd vpwr scs8hd_decap_12
XFILLER_13_179 vpwr vgnd scs8hd_fill_2
XANTENNA_mux_bottom_ipin_3.mux_l1_in_0__A0 chanx_right_in[1] vgnd vpwr scs8hd_diode_2
XANTENNA_mux_bottom_ipin_6.mux_l3_in_0__A1 mux_bottom_ipin_6.mux_l2_in_0_/X vgnd vpwr
+ scs8hd_diode_2
Xmux_bottom_ipin_12.mux_l2_in_1_ chanx_left_in[12] mux_bottom_ipin_12.mux_l1_in_2_/X
+ mux_bottom_ipin_12.mux_l2_in_2_/S mux_bottom_ipin_12.mux_l2_in_1_/X vgnd vpwr scs8hd_mux2_1
XFILLER_27_238 vgnd vpwr scs8hd_decap_4
XFILLER_10_105 vgnd vpwr scs8hd_decap_12
XFILLER_12_23 vpwr vgnd scs8hd_fill_2
XFILLER_12_45 vpwr vgnd scs8hd_fill_2
XFILLER_26_271 vgnd vpwr scs8hd_fill_1
XFILLER_18_238 vgnd vpwr scs8hd_decap_6
XANTENNA_mux_bottom_ipin_1.mux_l1_in_2__A0 chanx_right_in[5] vgnd vpwr scs8hd_diode_2
X_64_ chanx_left_in[7] chanx_right_out[7] vgnd vpwr scs8hd_buf_2
XFILLER_24_219 vgnd vpwr scs8hd_fill_1
XANTENNA_mem_bottom_ipin_7.scs8hd_dfxbp_1_2__CLK prog_clk vgnd vpwr scs8hd_diode_2
XANTENNA_mux_bottom_ipin_15.mux_l1_in_0__S mux_bottom_ipin_15.mux_l1_in_0_/S vgnd
+ vpwr scs8hd_diode_2
Xmem_bottom_ipin_5.scs8hd_dfxbp_1_2_ prog_clk mux_bottom_ipin_5.mux_l2_in_3_/S mux_bottom_ipin_5.mux_l3_in_1_/S
+ mem_bottom_ipin_5.scs8hd_dfxbp_1_2_/QN vgnd vpwr scs8hd_dfxbp_1
Xmux_bottom_ipin_12.mux_l1_in_2_ chanx_right_in[6] chanx_left_in[6] mux_bottom_ipin_12.mux_l1_in_2_/S
+ mux_bottom_ipin_12.mux_l1_in_2_/X vgnd vpwr scs8hd_mux2_1
XFILLER_23_88 vpwr vgnd scs8hd_fill_2
XFILLER_23_241 vgnd vpwr scs8hd_fill_1
XFILLER_3_3 vgnd vpwr scs8hd_decap_12
XFILLER_2_178 vgnd vpwr scs8hd_decap_12
XFILLER_0_15 vgnd vpwr scs8hd_decap_12
XANTENNA_mem_bottom_ipin_5.scs8hd_dfxbp_1_2__D mux_bottom_ipin_5.mux_l2_in_3_/S vgnd
+ vpwr scs8hd_diode_2
XANTENNA_mux_bottom_ipin_10.mux_l2_in_1__A1 chanx_right_in[2] vgnd vpwr scs8hd_diode_2
XFILLER_14_274 vgnd vpwr scs8hd_fill_1
Xmem_bottom_ipin_15.scs8hd_dfxbp_1_1_ prog_clk mux_bottom_ipin_15.mux_l1_in_0_/S mux_bottom_ipin_15.mux_l2_in_2_/S
+ mem_bottom_ipin_15.scs8hd_dfxbp_1_1_/QN vgnd vpwr scs8hd_dfxbp_1
XANTENNA_mem_bottom_ipin_5.scs8hd_dfxbp_1_0__CLK prog_clk vgnd vpwr scs8hd_diode_2
Xmux_bottom_ipin_7.mux_l1_in_0_ chanx_right_in[1] chanx_left_in[1] mux_bottom_ipin_7.mux_l1_in_0_/S
+ mux_bottom_ipin_7.mux_l1_in_0_/X vgnd vpwr scs8hd_mux2_1
XFILLER_9_79 vgnd vpwr scs8hd_decap_12
XFILLER_14_296 vgnd vpwr scs8hd_decap_3
XANTENNA_mux_bottom_ipin_6.scs8hd_buf_4_0__A mux_bottom_ipin_6.mux_l4_in_0_/X vgnd
+ vpwr scs8hd_diode_2
X_47_ chanx_right_in[4] chanx_left_out[4] vgnd vpwr scs8hd_buf_2
XFILLER_18_22 vpwr vgnd scs8hd_fill_2
XFILLER_34_32 vgnd vpwr scs8hd_decap_12
XFILLER_18_88 vpwr vgnd scs8hd_fill_2
XFILLER_11_211 vgnd vpwr scs8hd_decap_12
XFILLER_11_255 vpwr vgnd scs8hd_fill_2
XANTENNA_mux_bottom_ipin_1.mux_l2_in_1__A0 chanx_left_in[11] vgnd vpwr scs8hd_diode_2
XANTENNA_mux_bottom_ipin_0.mux_l1_in_0__S mux_bottom_ipin_0.mux_l1_in_2_/S vgnd vpwr
+ scs8hd_diode_2
XFILLER_6_292 vgnd vpwr scs8hd_decap_6
XFILLER_29_119 vgnd vpwr scs8hd_decap_3
XFILLER_29_108 vgnd vpwr scs8hd_fill_1
XANTENNA_mux_bottom_ipin_14.mux_l2_in_0__S mux_bottom_ipin_14.mux_l2_in_1_/S vgnd
+ vpwr scs8hd_diode_2
XANTENNA_mux_bottom_ipin_10.mux_l3_in_0__A1 mux_bottom_ipin_10.mux_l2_in_0_/X vgnd
+ vpwr scs8hd_diode_2
XFILLER_20_89 vgnd vpwr scs8hd_decap_3
XFILLER_28_141 vgnd vpwr scs8hd_decap_8
XFILLER_28_185 vgnd vpwr scs8hd_decap_4
XANTENNA_mux_bottom_ipin_1.mux_l3_in_0__A0 mux_bottom_ipin_1.mux_l2_in_1_/X vgnd vpwr
+ scs8hd_diode_2
XFILLER_25_177 vgnd vpwr scs8hd_decap_4
XFILLER_25_166 vgnd vpwr scs8hd_decap_4
XFILLER_15_78 vpwr vgnd scs8hd_fill_2
XFILLER_31_77 vpwr vgnd scs8hd_fill_2
XFILLER_0_298 vgnd vpwr scs8hd_fill_1
XFILLER_16_100 vpwr vgnd scs8hd_fill_2
XFILLER_31_136 vpwr vgnd scs8hd_fill_2
XFILLER_31_114 vgnd vpwr scs8hd_decap_4
XPHY_194 vgnd vpwr scs8hd_tapvpwrvgnd_1
XPHY_150 vgnd vpwr scs8hd_tapvpwrvgnd_1
XFILLER_16_188 vgnd vpwr scs8hd_decap_6
XPHY_161 vgnd vpwr scs8hd_tapvpwrvgnd_1
XPHY_172 vgnd vpwr scs8hd_tapvpwrvgnd_1
XPHY_183 vgnd vpwr scs8hd_tapvpwrvgnd_1
XFILLER_22_158 vgnd vpwr scs8hd_decap_4
XANTENNA_mux_bottom_ipin_13.mux_l3_in_0__S mux_bottom_ipin_13.mux_l3_in_1_/S vgnd
+ vpwr scs8hd_diode_2
XANTENNA_mux_bottom_ipin_5.mux_l1_in_1__S mux_bottom_ipin_5.mux_l1_in_2_/S vgnd vpwr
+ scs8hd_diode_2
XFILLER_26_88 vgnd vpwr scs8hd_decap_4
XFILLER_13_147 vgnd vpwr scs8hd_decap_12
XANTENNA_mux_bottom_ipin_3.mux_l1_in_0__A1 chanx_left_in[1] vgnd vpwr scs8hd_diode_2
XFILLER_3_59 vpwr vgnd scs8hd_fill_2
XFILLER_3_15 vgnd vpwr scs8hd_decap_12
Xmux_bottom_ipin_12.mux_l2_in_0_ mux_bottom_ipin_12.mux_l1_in_1_/X mux_bottom_ipin_12.mux_l1_in_0_/X
+ mux_bottom_ipin_12.mux_l2_in_2_/S mux_bottom_ipin_12.mux_l2_in_0_/X vgnd vpwr scs8hd_mux2_1
XANTENNA_mem_bottom_ipin_7.scs8hd_dfxbp_1_1__D mux_bottom_ipin_7.mux_l1_in_0_/S vgnd
+ vpwr scs8hd_diode_2
XFILLER_27_217 vpwr vgnd scs8hd_fill_2
XFILLER_35_261 vgnd vpwr scs8hd_decap_12
XFILLER_10_117 vgnd vpwr scs8hd_decap_12
Xmux_bottom_ipin_2.scs8hd_buf_4_0_ mux_bottom_ipin_2.mux_l4_in_0_/X top_grid_pin_18_
+ vgnd vpwr scs8hd_buf_1
XFILLER_5_7 vpwr vgnd scs8hd_fill_2
XFILLER_12_68 vgnd vpwr scs8hd_decap_4
XFILLER_12_79 vpwr vgnd scs8hd_fill_2
XFILLER_5_110 vgnd vpwr scs8hd_decap_12
XFILLER_24_209 vgnd vpwr scs8hd_decap_4
X_63_ chanx_left_in[8] chanx_right_out[8] vgnd vpwr scs8hd_buf_2
XANTENNA_mux_bottom_ipin_1.mux_l1_in_2__A1 chanx_left_in[5] vgnd vpwr scs8hd_diode_2
XFILLER_17_261 vgnd vpwr scs8hd_decap_4
XFILLER_4_80 vgnd vpwr scs8hd_decap_12
Xmem_bottom_ipin_5.scs8hd_dfxbp_1_1_ prog_clk mux_bottom_ipin_5.mux_l1_in_2_/S mux_bottom_ipin_5.mux_l2_in_3_/S
+ mem_bottom_ipin_5.scs8hd_dfxbp_1_1_/QN vgnd vpwr scs8hd_dfxbp_1
XFILLER_15_209 vpwr vgnd scs8hd_fill_2
XANTENNA_mux_bottom_ipin_14.mux_l2_in_3__S mux_bottom_ipin_14.mux_l2_in_1_/S vgnd
+ vpwr scs8hd_diode_2
XFILLER_23_220 vpwr vgnd scs8hd_fill_2
XANTENNA_mux_bottom_ipin_12.mux_l4_in_0__S mux_bottom_ipin_12.mux_l4_in_0_/S vgnd
+ vpwr scs8hd_diode_2
XANTENNA_mux_bottom_ipin_4.mux_l2_in_1__S mux_bottom_ipin_4.mux_l2_in_1_/S vgnd vpwr
+ scs8hd_diode_2
Xmux_bottom_ipin_12.mux_l1_in_1_ chanx_right_in[2] chanx_left_in[2] mux_bottom_ipin_12.mux_l1_in_2_/S
+ mux_bottom_ipin_12.mux_l1_in_1_/X vgnd vpwr scs8hd_mux2_1
XFILLER_23_264 vpwr vgnd scs8hd_fill_2
XFILLER_0_27 vgnd vpwr scs8hd_decap_4
Xmem_bottom_ipin_15.scs8hd_dfxbp_1_0_ prog_clk mux_bottom_ipin_14.mux_l4_in_0_/S mux_bottom_ipin_15.mux_l1_in_0_/S
+ mem_bottom_ipin_15.scs8hd_dfxbp_1_0_/QN vgnd vpwr scs8hd_dfxbp_1
XFILLER_9_58 vgnd vpwr scs8hd_fill_1
XFILLER_29_3 vgnd vpwr scs8hd_fill_1
XANTENNA_mux_bottom_ipin_8.mux_l2_in_2__A0 chanx_left_in[18] vgnd vpwr scs8hd_diode_2
X_46_ chanx_right_in[5] chanx_left_out[5] vgnd vpwr scs8hd_buf_2
XFILLER_20_267 vgnd vpwr scs8hd_decap_6
XFILLER_20_289 vgnd vpwr scs8hd_decap_8
XFILLER_34_44 vgnd vpwr scs8hd_decap_12
XFILLER_11_223 vgnd vpwr scs8hd_decap_12
XFILLER_18_78 vgnd vpwr scs8hd_decap_4
XFILLER_11_245 vgnd vpwr scs8hd_decap_4
XFILLER_11_267 vpwr vgnd scs8hd_fill_2
XANTENNA_mux_bottom_ipin_1.mux_l2_in_1__A1 mux_bottom_ipin_1.mux_l1_in_2_/X vgnd vpwr
+ scs8hd_diode_2
X_29_ _29_/HI _29_/LO vgnd vpwr scs8hd_conb_1
XANTENNA_mux_bottom_ipin_3.mux_l3_in_1__S mux_bottom_ipin_3.mux_l3_in_0_/S vgnd vpwr
+ scs8hd_diode_2
XFILLER_29_77 vpwr vgnd scs8hd_fill_2
XFILLER_29_55 vpwr vgnd scs8hd_fill_2
Xmem_bottom_ipin_10.scs8hd_dfxbp_1_3_ prog_clk mux_bottom_ipin_10.mux_l3_in_1_/S mux_bottom_ipin_10.mux_l4_in_0_/S
+ mem_bottom_ipin_10.scs8hd_dfxbp_1_3_/QN vgnd vpwr scs8hd_dfxbp_1
XANTENNA_mem_bottom_ipin_0.scs8hd_dfxbp_1_3__CLK prog_clk vgnd vpwr scs8hd_diode_2
XANTENNA_mem_bottom_ipin_10.scs8hd_dfxbp_1_1__D mux_bottom_ipin_10.mux_l1_in_0_/S
+ vgnd vpwr scs8hd_diode_2
XANTENNA_mux_bottom_ipin_8.mux_l3_in_1__A0 mux_bottom_ipin_8.mux_l2_in_3_/X vgnd vpwr
+ scs8hd_diode_2
XANTENNA_mem_bottom_ipin_9.scs8hd_dfxbp_1_0__D mux_bottom_ipin_8.mux_l4_in_0_/S vgnd
+ vpwr scs8hd_diode_2
XFILLER_19_164 vpwr vgnd scs8hd_fill_2
XFILLER_19_175 vpwr vgnd scs8hd_fill_2
XANTENNA_mux_bottom_ipin_9.mux_l2_in_2__S mux_bottom_ipin_9.mux_l2_in_2_/S vgnd vpwr
+ scs8hd_diode_2
XANTENNA_mux_bottom_ipin_1.mux_l3_in_0__A1 mux_bottom_ipin_1.mux_l2_in_0_/X vgnd vpwr
+ scs8hd_diode_2
XFILLER_25_123 vgnd vpwr scs8hd_decap_3
XFILLER_25_145 vpwr vgnd scs8hd_fill_2
XFILLER_15_57 vpwr vgnd scs8hd_fill_2
XANTENNA_mux_bottom_ipin_14.mux_l2_in_0__A0 chanx_left_in[2] vgnd vpwr scs8hd_diode_2
XFILLER_0_211 vgnd vpwr scs8hd_decap_6
XFILLER_31_159 vpwr vgnd scs8hd_fill_2
XPHY_195 vgnd vpwr scs8hd_tapvpwrvgnd_1
XPHY_140 vgnd vpwr scs8hd_tapvpwrvgnd_1
XPHY_151 vgnd vpwr scs8hd_tapvpwrvgnd_1
XPHY_162 vgnd vpwr scs8hd_tapvpwrvgnd_1
XPHY_173 vgnd vpwr scs8hd_tapvpwrvgnd_1
XPHY_184 vgnd vpwr scs8hd_tapvpwrvgnd_1
XFILLER_11_3 vgnd vpwr scs8hd_fill_1
XANTENNA_mux_bottom_ipin_8.mux_l4_in_0__A0 mux_bottom_ipin_8.mux_l3_in_1_/X vgnd vpwr
+ scs8hd_diode_2
XFILLER_26_67 vpwr vgnd scs8hd_fill_2
XFILLER_26_23 vpwr vgnd scs8hd_fill_2
XFILLER_13_104 vgnd vpwr scs8hd_decap_12
XFILLER_13_159 vgnd vpwr scs8hd_decap_12
XANTENNA_mux_bottom_ipin_12.mux_l2_in_2__A0 chanx_left_in[16] vgnd vpwr scs8hd_diode_2
XFILLER_3_27 vgnd vpwr scs8hd_decap_12
XFILLER_29_292 vpwr vgnd scs8hd_fill_2
XFILLER_8_141 vgnd vpwr scs8hd_decap_12
XFILLER_35_273 vgnd vpwr scs8hd_decap_6
XFILLER_10_129 vgnd vpwr scs8hd_decap_12
XANTENNA_mem_bottom_ipin_10.scs8hd_dfxbp_1_2__CLK prog_clk vgnd vpwr scs8hd_diode_2
XFILLER_26_251 vgnd vpwr scs8hd_decap_4
X_62_ chanx_left_in[9] chanx_right_out[9] vgnd vpwr scs8hd_buf_2
XFILLER_17_240 vpwr vgnd scs8hd_fill_2
XFILLER_32_254 vpwr vgnd scs8hd_fill_2
XFILLER_32_210 vgnd vpwr scs8hd_decap_4
XFILLER_17_295 vgnd vpwr scs8hd_decap_4
Xmem_bottom_ipin_5.scs8hd_dfxbp_1_0_ prog_clk mux_bottom_ipin_4.mux_l4_in_0_/S mux_bottom_ipin_5.mux_l1_in_2_/S
+ mem_bottom_ipin_5.scs8hd_dfxbp_1_0_/QN vgnd vpwr scs8hd_dfxbp_1
XANTENNA_mux_bottom_ipin_12.mux_l3_in_1__A0 mux_bottom_ipin_12.mux_l2_in_3_/X vgnd
+ vpwr scs8hd_diode_2
Xmux_bottom_ipin_12.mux_l1_in_0_ chanx_right_in[0] chanx_left_in[0] mux_bottom_ipin_12.mux_l1_in_2_/S
+ mux_bottom_ipin_12.mux_l1_in_0_/X vgnd vpwr scs8hd_mux2_1
XFILLER_23_254 vgnd vpwr scs8hd_decap_4
XFILLER_23_57 vpwr vgnd scs8hd_fill_2
XFILLER_9_15 vgnd vpwr scs8hd_decap_4
XFILLER_14_221 vpwr vgnd scs8hd_fill_2
XFILLER_14_232 vpwr vgnd scs8hd_fill_2
XANTENNA_mem_bottom_ipin_12.scs8hd_dfxbp_1_0__D mux_bottom_ipin_11.mux_l4_in_0_/S
+ vgnd vpwr scs8hd_diode_2
XANTENNA_mem_bottom_ipin_9.scs8hd_dfxbp_1_3__D mux_bottom_ipin_9.mux_l3_in_1_/S vgnd
+ vpwr scs8hd_diode_2
XANTENNA_mux_bottom_ipin_8.mux_l2_in_2__A1 chanx_right_in[12] vgnd vpwr scs8hd_diode_2
X_45_ chanx_right_in[6] chanx_left_out[6] vgnd vpwr scs8hd_buf_2
XFILLER_9_291 vpwr vgnd scs8hd_fill_2
XFILLER_18_46 vpwr vgnd scs8hd_fill_2
XFILLER_18_57 vpwr vgnd scs8hd_fill_2
XFILLER_34_56 vgnd vpwr scs8hd_decap_12
XFILLER_11_235 vgnd vpwr scs8hd_decap_8
XANTENNA_mux_bottom_ipin_11.mux_l1_in_0__S mux_bottom_ipin_11.mux_l1_in_0_/S vgnd
+ vpwr scs8hd_diode_2
XFILLER_11_279 vpwr vgnd scs8hd_fill_2
XANTENNA_mux_bottom_ipin_12.mux_l4_in_0__A0 mux_bottom_ipin_12.mux_l3_in_1_/X vgnd
+ vpwr scs8hd_diode_2
Xmem_bottom_ipin_0.scs8hd_dfxbp_1_3_ prog_clk mux_bottom_ipin_0.mux_l3_in_0_/S mux_bottom_ipin_0.mux_l4_in_0_/S
+ mem_bottom_ipin_0.scs8hd_dfxbp_1_3_/QN vgnd vpwr scs8hd_dfxbp_1
X_28_ _28_/HI _28_/LO vgnd vpwr scs8hd_conb_1
XFILLER_20_36 vpwr vgnd scs8hd_fill_2
XFILLER_29_34 vpwr vgnd scs8hd_fill_2
Xmem_bottom_ipin_10.scs8hd_dfxbp_1_2_ prog_clk mux_bottom_ipin_10.mux_l2_in_0_/S mux_bottom_ipin_10.mux_l3_in_1_/S
+ mem_bottom_ipin_10.scs8hd_dfxbp_1_2_/QN vgnd vpwr scs8hd_dfxbp_1
XFILLER_28_165 vgnd vpwr scs8hd_fill_1
XFILLER_28_110 vgnd vpwr scs8hd_decap_3
XANTENNA_mux_bottom_ipin_8.mux_l3_in_1__A1 mux_bottom_ipin_8.mux_l2_in_2_/X vgnd vpwr
+ scs8hd_diode_2
XANTENNA_mux_bottom_ipin_5.mux_l1_in_1__A0 chanx_right_in[3] vgnd vpwr scs8hd_diode_2
XFILLER_3_220 vgnd vpwr scs8hd_decap_12
XFILLER_10_91 vgnd vpwr scs8hd_fill_1
XFILLER_13_7 vpwr vgnd scs8hd_fill_2
XFILLER_19_132 vpwr vgnd scs8hd_fill_2
XANTENNA_mux_bottom_ipin_14.mux_l2_in_0__A1 mux_bottom_ipin_14.mux_l1_in_0_/X vgnd
+ vpwr scs8hd_diode_2
Xmux_bottom_ipin_3.mux_l2_in_3_ _28_/HI chanx_right_in[15] mux_bottom_ipin_3.mux_l2_in_0_/S
+ mux_bottom_ipin_3.mux_l2_in_3_/X vgnd vpwr scs8hd_mux2_1
XANTENNA_mux_bottom_ipin_10.mux_l2_in_0__S mux_bottom_ipin_10.mux_l2_in_0_/S vgnd
+ vpwr scs8hd_diode_2
XPHY_130 vgnd vpwr scs8hd_tapvpwrvgnd_1
XPHY_141 vgnd vpwr scs8hd_tapvpwrvgnd_1
XPHY_152 vgnd vpwr scs8hd_tapvpwrvgnd_1
XPHY_196 vgnd vpwr scs8hd_tapvpwrvgnd_1
XPHY_163 vgnd vpwr scs8hd_tapvpwrvgnd_1
XPHY_174 vgnd vpwr scs8hd_tapvpwrvgnd_1
XPHY_185 vgnd vpwr scs8hd_tapvpwrvgnd_1
XANTENNA_mux_bottom_ipin_5.mux_l2_in_0__A0 mux_bottom_ipin_5.mux_l1_in_1_/X vgnd vpwr
+ scs8hd_diode_2
XANTENNA_mux_bottom_ipin_8.mux_l4_in_0__A1 mux_bottom_ipin_8.mux_l3_in_0_/X vgnd vpwr
+ scs8hd_diode_2
XFILLER_26_46 vpwr vgnd scs8hd_fill_2
XFILLER_13_116 vgnd vpwr scs8hd_decap_6
XFILLER_21_160 vgnd vpwr scs8hd_decap_3
XANTENNA_mux_bottom_ipin_12.mux_l2_in_2__A1 chanx_right_in[12] vgnd vpwr scs8hd_diode_2
XFILLER_3_39 vgnd vpwr scs8hd_decap_12
XANTENNA_mem_bottom_ipin_12.scs8hd_dfxbp_1_3__D mux_bottom_ipin_12.mux_l3_in_1_/S
+ vgnd vpwr scs8hd_diode_2
XANTENNA_mem_bottom_ipin_5.scs8hd_dfxbp_1_3__CLK prog_clk vgnd vpwr scs8hd_diode_2
XFILLER_27_208 vpwr vgnd scs8hd_fill_2
XFILLER_35_230 vgnd vpwr scs8hd_decap_12
XANTENNA_mem_bottom_ipin_3.scs8hd_dfxbp_1_1__CLK prog_clk vgnd vpwr scs8hd_diode_2
XANTENNA_mux_bottom_ipin_3.mux_l2_in_2__A0 chanx_left_in[15] vgnd vpwr scs8hd_diode_2
XFILLER_26_285 vpwr vgnd scs8hd_fill_2
XFILLER_26_274 vgnd vpwr scs8hd_fill_1
XFILLER_5_123 vgnd vpwr scs8hd_decap_12
XANTENNA_mux_bottom_ipin_1.mux_l1_in_1__S mux_bottom_ipin_1.mux_l1_in_1_/S vgnd vpwr
+ scs8hd_diode_2
X_61_ chanx_left_in[10] chanx_right_out[10] vgnd vpwr scs8hd_buf_2
XFILLER_17_230 vpwr vgnd scs8hd_fill_2
Xmux_bottom_ipin_3.mux_l4_in_0_ mux_bottom_ipin_3.mux_l3_in_1_/X mux_bottom_ipin_3.mux_l3_in_0_/X
+ mux_bottom_ipin_3.mux_l4_in_0_/S mux_bottom_ipin_3.mux_l4_in_0_/X vgnd vpwr scs8hd_mux2_1
XFILLER_4_93 vgnd vpwr scs8hd_decap_12
XANTENNA_mux_bottom_ipin_15.mux_l2_in_1__S mux_bottom_ipin_15.mux_l2_in_2_/S vgnd
+ vpwr scs8hd_diode_2
XANTENNA_mux_bottom_ipin_12.mux_l3_in_1__A1 mux_bottom_ipin_12.mux_l2_in_2_/X vgnd
+ vpwr scs8hd_diode_2
XFILLER_23_233 vpwr vgnd scs8hd_fill_2
XFILLER_9_38 vgnd vpwr scs8hd_fill_1
X_44_ chanx_right_in[7] chanx_left_out[7] vgnd vpwr scs8hd_buf_2
Xmux_bottom_ipin_8.mux_l2_in_3_ _17_/HI chanx_right_in[18] mux_bottom_ipin_8.mux_l2_in_2_/S
+ mux_bottom_ipin_8.mux_l2_in_3_/X vgnd vpwr scs8hd_mux2_1
XANTENNA_mux_bottom_ipin_3.mux_l3_in_1__A0 mux_bottom_ipin_3.mux_l2_in_3_/X vgnd vpwr
+ scs8hd_diode_2
XFILLER_18_36 vpwr vgnd scs8hd_fill_2
XFILLER_34_68 vgnd vpwr scs8hd_decap_12
XANTENNA_mux_bottom_ipin_10.mux_l2_in_3__S mux_bottom_ipin_10.mux_l2_in_0_/S vgnd
+ vpwr scs8hd_diode_2
XANTENNA_mem_bottom_ipin_15.scs8hd_dfxbp_1_2__CLK prog_clk vgnd vpwr scs8hd_diode_2
XANTENNA_mux_bottom_ipin_0.mux_l2_in_1__S mux_bottom_ipin_0.mux_l2_in_3_/S vgnd vpwr
+ scs8hd_diode_2
Xmux_bottom_ipin_3.mux_l3_in_1_ mux_bottom_ipin_3.mux_l2_in_3_/X mux_bottom_ipin_3.mux_l2_in_2_/X
+ mux_bottom_ipin_3.mux_l3_in_0_/S mux_bottom_ipin_3.mux_l3_in_1_/X vgnd vpwr scs8hd_mux2_1
XANTENNA_mux_bottom_ipin_12.mux_l4_in_0__A1 mux_bottom_ipin_12.mux_l3_in_0_/X vgnd
+ vpwr scs8hd_diode_2
XFILLER_6_251 vgnd vpwr scs8hd_decap_12
XFILLER_10_280 vgnd vpwr scs8hd_decap_12
XFILLER_34_3 vgnd vpwr scs8hd_decap_12
XANTENNA_mem_bottom_ipin_13.scs8hd_dfxbp_1_0__CLK prog_clk vgnd vpwr scs8hd_diode_2
Xmem_bottom_ipin_0.scs8hd_dfxbp_1_2_ prog_clk mux_bottom_ipin_0.mux_l2_in_3_/S mux_bottom_ipin_0.mux_l3_in_0_/S
+ mem_bottom_ipin_0.scs8hd_dfxbp_1_2_/QN vgnd vpwr scs8hd_dfxbp_1
X_27_ _27_/HI _27_/LO vgnd vpwr scs8hd_conb_1
XFILLER_20_26 vpwr vgnd scs8hd_fill_2
XANTENNA_mux_bottom_ipin_14.mux_l3_in_1__S mux_bottom_ipin_14.mux_l3_in_1_/S vgnd
+ vpwr scs8hd_diode_2
XFILLER_29_13 vpwr vgnd scs8hd_fill_2
Xmem_bottom_ipin_10.scs8hd_dfxbp_1_1_ prog_clk mux_bottom_ipin_10.mux_l1_in_0_/S mux_bottom_ipin_10.mux_l2_in_0_/S
+ mem_bottom_ipin_10.scs8hd_dfxbp_1_1_/QN vgnd vpwr scs8hd_dfxbp_1
XANTENNA__34__A chanx_right_in[17] vgnd vpwr scs8hd_diode_2
XANTENNA_mux_bottom_ipin_5.mux_l1_in_1__A1 chanx_left_in[3] vgnd vpwr scs8hd_diode_2
XANTENNA_mux_bottom_ipin_3.mux_l4_in_0__A0 mux_bottom_ipin_3.mux_l3_in_1_/X vgnd vpwr
+ scs8hd_diode_2
XANTENNA_mux_bottom_ipin_1.scs8hd_buf_4_0__A mux_bottom_ipin_1.mux_l4_in_0_/X vgnd
+ vpwr scs8hd_diode_2
XFILLER_3_232 vgnd vpwr scs8hd_decap_12
XFILLER_19_144 vgnd vpwr scs8hd_decap_4
XFILLER_19_199 vpwr vgnd scs8hd_fill_2
XANTENNA_mem_bottom_ipin_14.scs8hd_dfxbp_1_2__D mux_bottom_ipin_14.mux_l2_in_1_/S
+ vgnd vpwr scs8hd_diode_2
XFILLER_34_158 vgnd vpwr scs8hd_decap_12
XFILLER_25_114 vpwr vgnd scs8hd_fill_2
XFILLER_15_48 vpwr vgnd scs8hd_fill_2
XFILLER_33_191 vgnd vpwr scs8hd_decap_3
XFILLER_31_25 vpwr vgnd scs8hd_fill_2
XFILLER_31_14 vgnd vpwr scs8hd_decap_4
Xmux_bottom_ipin_3.mux_l2_in_2_ chanx_left_in[15] chanx_right_in[7] mux_bottom_ipin_3.mux_l2_in_0_/S
+ mux_bottom_ipin_3.mux_l2_in_2_/X vgnd vpwr scs8hd_mux2_1
Xmux_bottom_ipin_8.mux_l4_in_0_ mux_bottom_ipin_8.mux_l3_in_1_/X mux_bottom_ipin_8.mux_l3_in_0_/X
+ mux_bottom_ipin_8.mux_l4_in_0_/S mux_bottom_ipin_8.mux_l4_in_0_/X vgnd vpwr scs8hd_mux2_1
XPHY_120 vgnd vpwr scs8hd_tapvpwrvgnd_1
XPHY_131 vgnd vpwr scs8hd_tapvpwrvgnd_1
XPHY_142 vgnd vpwr scs8hd_tapvpwrvgnd_1
XPHY_153 vgnd vpwr scs8hd_tapvpwrvgnd_1
XPHY_164 vgnd vpwr scs8hd_tapvpwrvgnd_1
XPHY_175 vgnd vpwr scs8hd_tapvpwrvgnd_1
XPHY_197 vgnd vpwr scs8hd_tapvpwrvgnd_1
XPHY_186 vgnd vpwr scs8hd_tapvpwrvgnd_1
XPHY_0 vgnd vpwr scs8hd_decap_3
XFILLER_22_106 vpwr vgnd scs8hd_fill_2
XFILLER_22_139 vgnd vpwr scs8hd_decap_12
XANTENNA_mux_bottom_ipin_5.mux_l2_in_0__A1 mux_bottom_ipin_5.mux_l1_in_0_/X vgnd vpwr
+ scs8hd_diode_2
XANTENNA_mux_bottom_ipin_5.mux_l2_in_2__S mux_bottom_ipin_5.mux_l2_in_3_/S vgnd vpwr