* NGSPICE file created from cbx_1__0_.ext - technology: sky130A

* Black-box entry subcircuit for sky130_fd_sc_hd__dfxtp_1 abstract view
.subckt sky130_fd_sc_hd__dfxtp_1 CLK D VGND VNB VPB VPWR Q
.ends

* Black-box entry subcircuit for sky130_fd_sc_hd__mux2_1 abstract view
.subckt sky130_fd_sc_hd__mux2_1 A0 A1 S VGND VNB VPB VPWR X
.ends

* Black-box entry subcircuit for sky130_fd_sc_hd__buf_2 abstract view
.subckt sky130_fd_sc_hd__buf_2 A VGND VNB VPB VPWR X
.ends

* Black-box entry subcircuit for sky130_fd_sc_hd__decap_6 abstract view
.subckt sky130_fd_sc_hd__decap_6 VGND VNB VPB VPWR
.ends

* Black-box entry subcircuit for sky130_fd_sc_hd__decap_8 abstract view
.subckt sky130_fd_sc_hd__decap_8 VGND VNB VPB VPWR
.ends

* Black-box entry subcircuit for sky130_fd_sc_hd__fill_2 abstract view
.subckt sky130_fd_sc_hd__fill_2 VGND VNB VPB VPWR
.ends

* Black-box entry subcircuit for sky130_fd_sc_hd__decap_3 abstract view
.subckt sky130_fd_sc_hd__decap_3 VGND VNB VPB VPWR
.ends

* Black-box entry subcircuit for sky130_fd_sc_hd__decap_12 abstract view
.subckt sky130_fd_sc_hd__decap_12 VGND VNB VPB VPWR
.ends

* Black-box entry subcircuit for sky130_fd_sc_hd__decap_4 abstract view
.subckt sky130_fd_sc_hd__decap_4 VGND VNB VPB VPWR
.ends

* Black-box entry subcircuit for sky130_fd_sc_hd__fill_1 abstract view
.subckt sky130_fd_sc_hd__fill_1 VGND VNB VPB VPWR
.ends

* Black-box entry subcircuit for sky130_fd_sc_hd__inv_1 abstract view
.subckt sky130_fd_sc_hd__inv_1 A VGND VNB VPB VPWR Y
.ends

* Black-box entry subcircuit for sky130_fd_sc_hd__buf_4 abstract view
.subckt sky130_fd_sc_hd__buf_4 A VGND VNB VPB VPWR X
.ends

* Black-box entry subcircuit for sky130_fd_sc_hd__buf_8 abstract view
.subckt sky130_fd_sc_hd__buf_8 A VGND VNB VPB VPWR X
.ends

* Black-box entry subcircuit for sky130_fd_sc_hd__or2b_4 abstract view
.subckt sky130_fd_sc_hd__or2b_4 A B_N VGND VNB VPB VPWR X
.ends

* Black-box entry subcircuit for sky130_fd_sc_hd__tapvpwrvgnd_1 abstract view
.subckt sky130_fd_sc_hd__tapvpwrvgnd_1 VGND VPWR
.ends

* Black-box entry subcircuit for sky130_fd_sc_hd__conb_1 abstract view
.subckt sky130_fd_sc_hd__conb_1 VGND VNB VPB VPWR HI LO
.ends

* Black-box entry subcircuit for sky130_fd_sc_hd__clkbuf_1 abstract view
.subckt sky130_fd_sc_hd__clkbuf_1 A VGND VNB VPB VPWR X
.ends

* Black-box entry subcircuit for sky130_fd_sc_hd__ebufn_4 abstract view
.subckt sky130_fd_sc_hd__ebufn_4 A TE_B VGND VNB VPB VPWR Z
.ends

* Black-box entry subcircuit for sky130_fd_sc_hd__clkbuf_16 abstract view
.subckt sky130_fd_sc_hd__clkbuf_16 A VGND VNB VPB VPWR X
.ends

* Black-box entry subcircuit for sky130_fd_sc_hd__diode_2 abstract view
.subckt sky130_fd_sc_hd__diode_2 DIODE VGND VNB VPB VPWR
.ends

.subckt cbx_1__0_ IO_ISOL_N SC_IN_BOT SC_IN_TOP SC_OUT_BOT SC_OUT_TOP bottom_grid_pin_0_
+ bottom_grid_pin_10_ bottom_grid_pin_12_ bottom_grid_pin_14_ bottom_grid_pin_16_
+ bottom_grid_pin_2_ bottom_grid_pin_4_ bottom_grid_pin_6_ bottom_grid_pin_8_ ccff_head
+ ccff_tail chanx_left_in[0] chanx_left_in[10] chanx_left_in[11] chanx_left_in[12]
+ chanx_left_in[13] chanx_left_in[14] chanx_left_in[15] chanx_left_in[16] chanx_left_in[17]
+ chanx_left_in[18] chanx_left_in[19] chanx_left_in[1] chanx_left_in[2] chanx_left_in[3]
+ chanx_left_in[4] chanx_left_in[5] chanx_left_in[6] chanx_left_in[7] chanx_left_in[8]
+ chanx_left_in[9] chanx_left_out[0] chanx_left_out[10] chanx_left_out[11] chanx_left_out[12]
+ chanx_left_out[13] chanx_left_out[14] chanx_left_out[15] chanx_left_out[16] chanx_left_out[17]
+ chanx_left_out[18] chanx_left_out[19] chanx_left_out[1] chanx_left_out[2] chanx_left_out[3]
+ chanx_left_out[4] chanx_left_out[5] chanx_left_out[6] chanx_left_out[7] chanx_left_out[8]
+ chanx_left_out[9] chanx_right_in[0] chanx_right_in[10] chanx_right_in[11] chanx_right_in[12]
+ chanx_right_in[13] chanx_right_in[14] chanx_right_in[15] chanx_right_in[16] chanx_right_in[17]
+ chanx_right_in[18] chanx_right_in[19] chanx_right_in[1] chanx_right_in[2] chanx_right_in[3]
+ chanx_right_in[4] chanx_right_in[5] chanx_right_in[6] chanx_right_in[7] chanx_right_in[8]
+ chanx_right_in[9] chanx_right_out[0] chanx_right_out[10] chanx_right_out[11] chanx_right_out[12]
+ chanx_right_out[13] chanx_right_out[14] chanx_right_out[15] chanx_right_out[16]
+ chanx_right_out[17] chanx_right_out[18] chanx_right_out[19] chanx_right_out[1] chanx_right_out[2]
+ chanx_right_out[3] chanx_right_out[4] chanx_right_out[5] chanx_right_out[6] chanx_right_out[7]
+ chanx_right_out[8] chanx_right_out[9] gfpga_pad_EMBEDDED_IO_HD_SOC_DIR[0] gfpga_pad_EMBEDDED_IO_HD_SOC_DIR[1]
+ gfpga_pad_EMBEDDED_IO_HD_SOC_DIR[2] gfpga_pad_EMBEDDED_IO_HD_SOC_DIR[3] gfpga_pad_EMBEDDED_IO_HD_SOC_DIR[4]
+ gfpga_pad_EMBEDDED_IO_HD_SOC_DIR[5] gfpga_pad_EMBEDDED_IO_HD_SOC_DIR[6] gfpga_pad_EMBEDDED_IO_HD_SOC_DIR[7]
+ gfpga_pad_EMBEDDED_IO_HD_SOC_DIR[8] gfpga_pad_EMBEDDED_IO_HD_SOC_IN[0] gfpga_pad_EMBEDDED_IO_HD_SOC_IN[1]
+ gfpga_pad_EMBEDDED_IO_HD_SOC_IN[2] gfpga_pad_EMBEDDED_IO_HD_SOC_IN[3] gfpga_pad_EMBEDDED_IO_HD_SOC_IN[4]
+ gfpga_pad_EMBEDDED_IO_HD_SOC_IN[5] gfpga_pad_EMBEDDED_IO_HD_SOC_IN[6] gfpga_pad_EMBEDDED_IO_HD_SOC_IN[7]
+ gfpga_pad_EMBEDDED_IO_HD_SOC_IN[8] gfpga_pad_EMBEDDED_IO_HD_SOC_OUT[0] gfpga_pad_EMBEDDED_IO_HD_SOC_OUT[1]
+ gfpga_pad_EMBEDDED_IO_HD_SOC_OUT[2] gfpga_pad_EMBEDDED_IO_HD_SOC_OUT[3] gfpga_pad_EMBEDDED_IO_HD_SOC_OUT[4]
+ gfpga_pad_EMBEDDED_IO_HD_SOC_OUT[5] gfpga_pad_EMBEDDED_IO_HD_SOC_OUT[6] gfpga_pad_EMBEDDED_IO_HD_SOC_OUT[7]
+ gfpga_pad_EMBEDDED_IO_HD_SOC_OUT[8] prog_clk_0_N_in prog_clk_0_W_out top_width_0_height_0__pin_0_
+ top_width_0_height_0__pin_10_ top_width_0_height_0__pin_11_lower top_width_0_height_0__pin_11_upper
+ top_width_0_height_0__pin_12_ top_width_0_height_0__pin_13_lower top_width_0_height_0__pin_13_upper
+ top_width_0_height_0__pin_14_ top_width_0_height_0__pin_15_lower top_width_0_height_0__pin_15_upper
+ top_width_0_height_0__pin_16_ top_width_0_height_0__pin_17_lower top_width_0_height_0__pin_17_upper
+ top_width_0_height_0__pin_1_lower top_width_0_height_0__pin_1_upper top_width_0_height_0__pin_2_
+ top_width_0_height_0__pin_3_lower top_width_0_height_0__pin_3_upper top_width_0_height_0__pin_4_
+ top_width_0_height_0__pin_5_lower top_width_0_height_0__pin_5_upper top_width_0_height_0__pin_6_
+ top_width_0_height_0__pin_7_lower top_width_0_height_0__pin_7_upper top_width_0_height_0__pin_8_
+ top_width_0_height_0__pin_9_lower top_width_0_height_0__pin_9_upper VPWR VGND
Xmem_top_ipin_8.sky130_fd_sc_hd__dfxtp_1_0_ mem_top_ipin_8.sky130_fd_sc_hd__dfxtp_1_0_/CLK
+ mux_top_ipin_7.mux_l4_in_0_/S VGND VGND VPWR VPWR mux_top_ipin_8.mux_l1_in_2_/S
+ sky130_fd_sc_hd__dfxtp_1
Xmux_top_ipin_1.mux_l1_in_1_ chanx_right_in[3] chanx_left_in[3] mux_top_ipin_1.mux_l1_in_1_/S
+ VGND VGND VPWR VPWR mux_top_ipin_1.mux_l1_in_1_/X sky130_fd_sc_hd__mux2_1
X_83_ chanx_right_in[18] VGND VGND VPWR VPWR chanx_left_out[18] sky130_fd_sc_hd__buf_2
XFILLER_9_104 VGND VGND VPWR VPWR sky130_fd_sc_hd__decap_6
XFILLER_3_23 VGND VGND VPWR VPWR sky130_fd_sc_hd__decap_8
XFILLER_8_170 VGND VGND VPWR VPWR sky130_fd_sc_hd__fill_2
XFILLER_8_181 VGND VGND VPWR VPWR sky130_fd_sc_hd__fill_2
XFILLER_12_43 VGND VGND VPWR VPWR sky130_fd_sc_hd__fill_2
XFILLER_12_32 VGND VGND VPWR VPWR sky130_fd_sc_hd__fill_2
XFILLER_12_21 VGND VGND VPWR VPWR sky130_fd_sc_hd__fill_2
XFILLER_10_136 VGND VGND VPWR VPWR sky130_fd_sc_hd__decap_6
XFILLER_10_125 VGND VGND VPWR VPWR sky130_fd_sc_hd__fill_2
XFILLER_10_114 VGND VGND VPWR VPWR sky130_fd_sc_hd__fill_2
X_66_ _66_/A VGND VGND VPWR VPWR gfpga_pad_EMBEDDED_IO_HD_SOC_OUT[4] sky130_fd_sc_hd__buf_2
Xmux_top_ipin_6.mux_l2_in_0_ mux_top_ipin_6.mux_l1_in_1_/X mux_top_ipin_6.mux_l1_in_0_/X
+ mux_top_ipin_6.mux_l2_in_3_/S VGND VGND VPWR VPWR mux_top_ipin_6.mux_l2_in_0_/X
+ sky130_fd_sc_hd__mux2_1
XFILLER_9_55 VGND VGND VPWR VPWR sky130_fd_sc_hd__decap_6
XFILLER_2_121 VGND VGND VPWR VPWR sky130_fd_sc_hd__decap_3
XFILLER_9_22 VGND VGND VPWR VPWR sky130_fd_sc_hd__fill_2
XFILLER_9_33 VGND VGND VPWR VPWR sky130_fd_sc_hd__fill_2
XFILLER_9_44 VGND VGND VPWR VPWR sky130_fd_sc_hd__fill_2
X_49_ chanx_left_in[3] VGND VGND VPWR VPWR chanx_right_out[3] sky130_fd_sc_hd__buf_2
Xmux_top_ipin_6.mux_l1_in_1_ chanx_right_in[2] chanx_left_in[2] mux_top_ipin_6.mux_l1_in_1_/S
+ VGND VGND VPWR VPWR mux_top_ipin_6.mux_l1_in_1_/X sky130_fd_sc_hd__mux2_1
XFILLER_20_32 VGND VGND VPWR VPWR sky130_fd_sc_hd__decap_12
XFILLER_13_3 VGND VGND VPWR VPWR sky130_fd_sc_hd__decap_4
XFILLER_6_45 VGND VGND VPWR VPWR sky130_fd_sc_hd__fill_2
XFILLER_6_56 VGND VGND VPWR VPWR sky130_fd_sc_hd__fill_2
XFILLER_6_67 VGND VGND VPWR VPWR sky130_fd_sc_hd__fill_2
XFILLER_6_78 VGND VGND VPWR VPWR sky130_fd_sc_hd__decap_3
XFILLER_15_65 VGND VGND VPWR VPWR sky130_fd_sc_hd__decap_4
XFILLER_15_54 VGND VGND VPWR VPWR sky130_fd_sc_hd__decap_6
XFILLER_22_156 VGND VGND VPWR VPWR sky130_fd_sc_hd__decap_12
Xmux_top_ipin_1.mux_l1_in_0_ chanx_right_in[1] chanx_left_in[1] mux_top_ipin_1.mux_l1_in_1_/S
+ VGND VGND VPWR VPWR mux_top_ipin_1.mux_l1_in_0_/X sky130_fd_sc_hd__mux2_1
XFILLER_13_145 VGND VGND VPWR VPWR sky130_fd_sc_hd__fill_1
XFILLER_13_123 VGND VGND VPWR VPWR sky130_fd_sc_hd__decap_4
XFILLER_13_112 VGND VGND VPWR VPWR sky130_fd_sc_hd__fill_2
XFILLER_13_101 VGND VGND VPWR VPWR sky130_fd_sc_hd__fill_2
X_82_ chanx_right_in[19] VGND VGND VPWR VPWR chanx_left_out[19] sky130_fd_sc_hd__buf_2
X_65_ _65_/A VGND VGND VPWR VPWR gfpga_pad_EMBEDDED_IO_HD_SOC_OUT[5] sky130_fd_sc_hd__buf_2
X_48_ chanx_left_in[4] VGND VGND VPWR VPWR chanx_right_out[4] sky130_fd_sc_hd__buf_2
XFILLER_18_54 VGND VGND VPWR VPWR sky130_fd_sc_hd__fill_2
XFILLER_18_32 VGND VGND VPWR VPWR sky130_fd_sc_hd__decap_6
Xmux_top_ipin_6.mux_l1_in_0_ chanx_right_in[0] chanx_left_in[0] mux_top_ipin_6.mux_l1_in_1_/S
+ VGND VGND VPWR VPWR mux_top_ipin_6.mux_l1_in_0_/X sky130_fd_sc_hd__mux2_1
XFILLER_20_44 VGND VGND VPWR VPWR sky130_fd_sc_hd__decap_12
XFILLER_19_184 VGND VGND VPWR VPWR sky130_fd_sc_hd__decap_6
XFILLER_16_154 VGND VGND VPWR VPWR sky130_fd_sc_hd__decap_8
XFILLER_16_121 VGND VGND VPWR VPWR sky130_fd_sc_hd__fill_2
XFILLER_15_99 VGND VGND VPWR VPWR sky130_fd_sc_hd__fill_2
XFILLER_22_168 VGND VGND VPWR VPWR sky130_fd_sc_hd__decap_12
X_81_ SC_IN_BOT VGND VGND VPWR VPWR SC_OUT_TOP sky130_fd_sc_hd__buf_2
XFILLER_12_89 VGND VGND VPWR VPWR sky130_fd_sc_hd__decap_3
XFILLER_12_78 VGND VGND VPWR VPWR sky130_fd_sc_hd__fill_2
X_64_ _64_/A VGND VGND VPWR VPWR gfpga_pad_EMBEDDED_IO_HD_SOC_OUT[6] sky130_fd_sc_hd__buf_2
Xlogical_tile_io_mode_io__5.ltile_phy_iopad_0.EMBEDDED_IO_HD_0_.INV_SOC_DIR _56_/A
+ VGND VGND VPWR VPWR logical_tile_io_mode_io__5.ltile_phy_iopad_0.EMBEDDED_IO_HD_0_.INV_SOC_DIR/Y
+ sky130_fd_sc_hd__inv_1
XFILLER_5_131 VGND VGND VPWR VPWR sky130_fd_sc_hd__fill_2
XFILLER_4_90 VGND VGND VPWR VPWR sky130_fd_sc_hd__fill_2
Xmux_top_ipin_4.sky130_fd_sc_hd__buf_4_0_ mux_top_ipin_4.mux_l4_in_0_/X VGND VGND
+ VPWR VPWR bottom_grid_pin_8_ sky130_fd_sc_hd__buf_4
XFILLER_0_48 VGND VGND VPWR VPWR sky130_fd_sc_hd__fill_2
XFILLER_2_145 VGND VGND VPWR VPWR sky130_fd_sc_hd__fill_2
XFILLER_2_178 VGND VGND VPWR VPWR sky130_fd_sc_hd__fill_2
XFILLER_3_3 VGND VGND VPWR VPWR sky130_fd_sc_hd__fill_2
X_47_ chanx_left_in[5] VGND VGND VPWR VPWR chanx_right_out[5] sky130_fd_sc_hd__buf_2
XFILLER_18_22 VGND VGND VPWR VPWR sky130_fd_sc_hd__fill_2
XFILLER_18_11 VGND VGND VPWR VPWR sky130_fd_sc_hd__fill_2
XFILLER_20_56 VGND VGND VPWR VPWR sky130_fd_sc_hd__decap_12
XFILLER_15_12 VGND VGND VPWR VPWR sky130_fd_sc_hd__fill_2
XFILLER_22_125 VGND VGND VPWR VPWR sky130_fd_sc_hd__decap_12
X_80_ SC_IN_TOP VGND VGND VPWR VPWR SC_OUT_BOT sky130_fd_sc_hd__buf_2
XFILLER_12_180 VGND VGND VPWR VPWR sky130_fd_sc_hd__fill_2
XFILLER_8_140 VGND VGND VPWR VPWR sky130_fd_sc_hd__fill_2
XFILLER_8_151 VGND VGND VPWR VPWR sky130_fd_sc_hd__fill_2
XFILLER_5_121 VGND VGND VPWR VPWR sky130_fd_sc_hd__fill_1
X_63_ _63_/A VGND VGND VPWR VPWR gfpga_pad_EMBEDDED_IO_HD_SOC_OUT[7] sky130_fd_sc_hd__buf_2
Xprog_clk_0_FTB00 prog_clk_0_N_in VGND VGND VPWR VPWR prog_clk_0_FTB00/X sky130_fd_sc_hd__buf_8
XFILLER_0_38 VGND VGND VPWR VPWR sky130_fd_sc_hd__decap_6
X_46_ chanx_left_in[6] VGND VGND VPWR VPWR chanx_right_out[6] sky130_fd_sc_hd__buf_2
X_29_ chanx_right_in[3] VGND VGND VPWR VPWR chanx_left_out[3] sky130_fd_sc_hd__buf_2
XFILLER_20_68 VGND VGND VPWR VPWR sky130_fd_sc_hd__decap_12
Xlogical_tile_io_mode_io__1.ltile_phy_iopad_0.EMBEDDED_IO_HD_sky130_fd_sc_hd__dfxtp_1_mem.sky130_fd_sc_hd__dfxtp_1_0_
+ mem_top_ipin_4.sky130_fd_sc_hd__dfxtp_1_2_/CLK logical_tile_io_mode_io__0.ltile_phy_iopad_0.EMBEDDED_IO_HD_0_.ISOL_EN_GATE/A
+ VGND VGND VPWR VPWR logical_tile_io_mode_io__1.ltile_phy_iopad_0.EMBEDDED_IO_HD_0_.ISOL_EN_GATE/A
+ sky130_fd_sc_hd__dfxtp_1
XFILLER_11_3 VGND VGND VPWR VPWR sky130_fd_sc_hd__decap_3
XFILLER_22_137 VGND VGND VPWR VPWR sky130_fd_sc_hd__decap_12
Xlogical_tile_io_mode_io__5.ltile_phy_iopad_0.EMBEDDED_IO_HD_0_.ISOL_EN_GATE logical_tile_io_mode_io__5.ltile_phy_iopad_0.EMBEDDED_IO_HD_0_.ISOL_EN_GATE/A
+ IO_ISOL_N VGND VGND VPWR VPWR _56_/A sky130_fd_sc_hd__or2b_4
Xmux_top_ipin_2.mux_l2_in_3_ _11_/HI chanx_right_in[18] mux_top_ipin_2.mux_l2_in_2_/S
+ VGND VGND VPWR VPWR mux_top_ipin_2.mux_l2_in_3_/X sky130_fd_sc_hd__mux2_1
XFILLER_13_137 VGND VGND VPWR VPWR sky130_fd_sc_hd__decap_8
XFILLER_3_49 VGND VGND VPWR VPWR sky130_fd_sc_hd__decap_12
XFILLER_5_155 VGND VGND VPWR VPWR sky130_fd_sc_hd__fill_2
X_62_ _62_/A VGND VGND VPWR VPWR gfpga_pad_EMBEDDED_IO_HD_SOC_OUT[8] sky130_fd_sc_hd__buf_2
XFILLER_5_188 VGND VGND VPWR VPWR sky130_fd_sc_hd__fill_2
XFILLER_2_103 VGND VGND VPWR VPWR sky130_fd_sc_hd__fill_2
XFILLER_2_158 VGND VGND VPWR VPWR sky130_fd_sc_hd__fill_2
Xmux_top_ipin_2.mux_l4_in_0_ mux_top_ipin_2.mux_l3_in_1_/X mux_top_ipin_2.mux_l3_in_0_/X
+ mux_top_ipin_2.mux_l4_in_0_/S VGND VGND VPWR VPWR mux_top_ipin_2.mux_l4_in_0_/X
+ sky130_fd_sc_hd__mux2_1
X_45_ chanx_left_in[7] VGND VGND VPWR VPWR chanx_right_out[7] sky130_fd_sc_hd__buf_2
X_28_ chanx_right_in[4] VGND VGND VPWR VPWR chanx_left_out[4] sky130_fd_sc_hd__buf_2
XFILLER_20_14 VGND VGND VPWR VPWR sky130_fd_sc_hd__decap_12
Xmux_top_ipin_7.mux_l2_in_3_ _16_/HI chanx_right_in[17] mux_top_ipin_7.mux_l2_in_3_/S
+ VGND VGND VPWR VPWR mux_top_ipin_7.mux_l2_in_3_/X sky130_fd_sc_hd__mux2_1
XFILLER_19_110 VGND VGND VPWR VPWR sky130_fd_sc_hd__decap_12
Xmux_top_ipin_2.mux_l3_in_1_ mux_top_ipin_2.mux_l2_in_3_/X mux_top_ipin_2.mux_l2_in_2_/X
+ mux_top_ipin_2.mux_l3_in_1_/S VGND VGND VPWR VPWR mux_top_ipin_2.mux_l3_in_1_/X
+ sky130_fd_sc_hd__mux2_1
XFILLER_13_7 VGND VGND VPWR VPWR sky130_fd_sc_hd__fill_1
XFILLER_15_69 VGND VGND VPWR VPWR sky130_fd_sc_hd__fill_1
XFILLER_21_90 VGND VGND VPWR VPWR sky130_fd_sc_hd__decap_12
XFILLER_22_149 VGND VGND VPWR VPWR sky130_fd_sc_hd__decap_6
XFILLER_21_182 VGND VGND VPWR VPWR sky130_fd_sc_hd__fill_1
Xmux_top_ipin_2.mux_l2_in_2_ chanx_left_in[18] chanx_right_in[12] mux_top_ipin_2.mux_l2_in_2_/S
+ VGND VGND VPWR VPWR mux_top_ipin_2.mux_l2_in_2_/X sky130_fd_sc_hd__mux2_1
XFILLER_13_127 VGND VGND VPWR VPWR sky130_fd_sc_hd__fill_1
XFILLER_3_17 VGND VGND VPWR VPWR sky130_fd_sc_hd__fill_2
Xmux_top_ipin_7.mux_l4_in_0_ mux_top_ipin_7.mux_l3_in_1_/X mux_top_ipin_7.mux_l3_in_0_/X
+ mux_top_ipin_7.mux_l4_in_0_/S VGND VGND VPWR VPWR mux_top_ipin_7.mux_l4_in_0_/X
+ sky130_fd_sc_hd__mux2_1
XFILLER_12_59 VGND VGND VPWR VPWR sky130_fd_sc_hd__decap_3
XFILLER_12_48 VGND VGND VPWR VPWR sky130_fd_sc_hd__fill_2
XFILLER_5_9 VGND VGND VPWR VPWR sky130_fd_sc_hd__fill_2
X_61_ _61_/A VGND VGND VPWR VPWR gfpga_pad_EMBEDDED_IO_HD_SOC_DIR[0] sky130_fd_sc_hd__buf_2
XFILLER_5_167 VGND VGND VPWR VPWR sky130_fd_sc_hd__fill_2
XFILLER_5_178 VGND VGND VPWR VPWR sky130_fd_sc_hd__decap_4
XFILLER_4_93 VGND VGND VPWR VPWR sky130_fd_sc_hd__decap_4
Xmux_top_ipin_7.mux_l3_in_1_ mux_top_ipin_7.mux_l2_in_3_/X mux_top_ipin_7.mux_l2_in_2_/X
+ mux_top_ipin_7.mux_l3_in_1_/S VGND VGND VPWR VPWR mux_top_ipin_7.mux_l3_in_1_/X
+ sky130_fd_sc_hd__mux2_1
XFILLER_0_29 VGND VGND VPWR VPWR sky130_fd_sc_hd__fill_2
XFILLER_2_137 VGND VGND VPWR VPWR sky130_fd_sc_hd__decap_4
XFILLER_1_181 VGND VGND VPWR VPWR sky130_fd_sc_hd__fill_2
X_44_ chanx_left_in[8] VGND VGND VPWR VPWR chanx_right_out[8] sky130_fd_sc_hd__buf_2
XFILLER_1_3 VGND VGND VPWR VPWR sky130_fd_sc_hd__decap_3
XFILLER_1_94 VGND VGND VPWR VPWR sky130_fd_sc_hd__decap_4
XFILLER_1_72 VGND VGND VPWR VPWR sky130_fd_sc_hd__decap_3
X_27_ chanx_right_in[5] VGND VGND VPWR VPWR chanx_left_out[5] sky130_fd_sc_hd__buf_2
XFILLER_20_26 VGND VGND VPWR VPWR sky130_fd_sc_hd__decap_4
Xmux_top_ipin_7.mux_l2_in_2_ chanx_left_in[17] chanx_right_in[11] mux_top_ipin_7.mux_l2_in_3_/S
+ VGND VGND VPWR VPWR mux_top_ipin_7.mux_l2_in_2_/X sky130_fd_sc_hd__mux2_1
Xlogical_tile_io_mode_io__8.ltile_phy_iopad_0.EMBEDDED_IO_HD_sky130_fd_sc_hd__dfxtp_1_mem.sky130_fd_sc_hd__dfxtp_1_0_
+ mem_top_ipin_4.sky130_fd_sc_hd__dfxtp_1_3_/CLK logical_tile_io_mode_io__7.ltile_phy_iopad_0.EMBEDDED_IO_HD_0_.ISOL_EN_GATE/A
+ VGND VGND VPWR VPWR ccff_tail sky130_fd_sc_hd__dfxtp_1
Xmux_top_ipin_2.mux_l3_in_0_ mux_top_ipin_2.mux_l2_in_1_/X mux_top_ipin_2.mux_l2_in_0_/X
+ mux_top_ipin_2.mux_l3_in_1_/S VGND VGND VPWR VPWR mux_top_ipin_2.mux_l3_in_0_/X
+ sky130_fd_sc_hd__mux2_1
XPHY_120 VGND VPWR sky130_fd_sc_hd__tapvpwrvgnd_1
XFILLER_22_106 VGND VGND VPWR VPWR sky130_fd_sc_hd__decap_12
XPHY_0 VGND VGND VPWR VPWR sky130_fd_sc_hd__decap_3
XFILLER_7_60 VGND VGND VPWR VPWR sky130_fd_sc_hd__fill_1
XFILLER_7_71 VGND VGND VPWR VPWR sky130_fd_sc_hd__decap_3
Xmux_top_ipin_2.mux_l2_in_1_ chanx_left_in[12] mux_top_ipin_2.mux_l1_in_2_/X mux_top_ipin_2.mux_l2_in_2_/S
+ VGND VGND VPWR VPWR mux_top_ipin_2.mux_l2_in_1_/X sky130_fd_sc_hd__mux2_1
XFILLER_13_117 VGND VGND VPWR VPWR sky130_fd_sc_hd__decap_4
XFILLER_8_187 VGND VGND VPWR VPWR sky130_fd_sc_hd__decap_3
XFILLER_12_27 VGND VGND VPWR VPWR sky130_fd_sc_hd__decap_4
XFILLER_10_109 VGND VGND VPWR VPWR sky130_fd_sc_hd__fill_2
X_60_ _60_/A VGND VGND VPWR VPWR gfpga_pad_EMBEDDED_IO_HD_SOC_DIR[1] sky130_fd_sc_hd__buf_2
XFILLER_5_113 VGND VGND VPWR VPWR sky130_fd_sc_hd__decap_8
XFILLER_5_146 VGND VGND VPWR VPWR sky130_fd_sc_hd__decap_4
Xmux_top_ipin_2.mux_l1_in_2_ chanx_right_in[6] chanx_left_in[6] mux_top_ipin_2.mux_l1_in_2_/S
+ VGND VGND VPWR VPWR mux_top_ipin_2.mux_l1_in_2_/X sky130_fd_sc_hd__mux2_1
XFILLER_4_72 VGND VGND VPWR VPWR sky130_fd_sc_hd__decap_3
Xmux_top_ipin_7.mux_l3_in_0_ mux_top_ipin_7.mux_l2_in_1_/X mux_top_ipin_7.mux_l2_in_0_/X
+ mux_top_ipin_7.mux_l3_in_1_/S VGND VGND VPWR VPWR mux_top_ipin_7.mux_l3_in_0_/X
+ sky130_fd_sc_hd__mux2_1
XFILLER_0_19 VGND VGND VPWR VPWR sky130_fd_sc_hd__decap_4
XFILLER_9_17 VGND VGND VPWR VPWR sky130_fd_sc_hd__fill_2
Xmux_top_ipin_7.sky130_fd_sc_hd__buf_4_0_ mux_top_ipin_7.mux_l4_in_0_/X VGND VGND
+ VPWR VPWR bottom_grid_pin_14_ sky130_fd_sc_hd__buf_4
X_43_ chanx_left_in[9] VGND VGND VPWR VPWR chanx_right_out[9] sky130_fd_sc_hd__buf_2
Xmux_top_ipin_7.mux_l2_in_1_ chanx_left_in[11] mux_top_ipin_7.mux_l1_in_2_/X mux_top_ipin_7.mux_l2_in_3_/S
+ VGND VGND VPWR VPWR mux_top_ipin_7.mux_l2_in_1_/X sky130_fd_sc_hd__mux2_1
XFILLER_1_62 VGND VGND VPWR VPWR sky130_fd_sc_hd__fill_1
X_26_ chanx_right_in[6] VGND VGND VPWR VPWR chanx_left_out[6] sky130_fd_sc_hd__buf_2
XFILLER_19_123 VGND VGND VPWR VPWR sky130_fd_sc_hd__decap_12
XFILLER_6_18 VGND VGND VPWR VPWR sky130_fd_sc_hd__fill_2
XFILLER_6_29 VGND VGND VPWR VPWR sky130_fd_sc_hd__fill_2
X_09_ VGND VGND VPWR VPWR _09_/HI _09_/LO sky130_fd_sc_hd__conb_1
XPHY_110 VGND VPWR sky130_fd_sc_hd__tapvpwrvgnd_1
XFILLER_22_118 VGND VGND VPWR VPWR sky130_fd_sc_hd__decap_6
XFILLER_15_181 VGND VGND VPWR VPWR sky130_fd_sc_hd__fill_2
Xmux_top_ipin_7.mux_l1_in_2_ chanx_right_in[7] chanx_left_in[7] mux_top_ipin_7.mux_l1_in_2_/S
+ VGND VGND VPWR VPWR mux_top_ipin_7.mux_l1_in_2_/X sky130_fd_sc_hd__mux2_1
XPHY_1 VGND VGND VPWR VPWR sky130_fd_sc_hd__decap_3
XFILLER_21_184 VGND VGND VPWR VPWR sky130_fd_sc_hd__decap_6
Xmux_top_ipin_2.mux_l2_in_0_ mux_top_ipin_2.mux_l1_in_1_/X mux_top_ipin_2.mux_l1_in_0_/X
+ mux_top_ipin_2.mux_l2_in_2_/S VGND VGND VPWR VPWR mux_top_ipin_2.mux_l2_in_0_/X
+ sky130_fd_sc_hd__mux2_1
XFILLER_7_83 VGND VGND VPWR VPWR sky130_fd_sc_hd__decap_3
Xlogical_tile_io_mode_io__0.ltile_phy_iopad_0.EMBEDDED_IO_HD_0_.INV_SOC_DIR _61_/A
+ VGND VGND VPWR VPWR logical_tile_io_mode_io__0.ltile_phy_iopad_0.EMBEDDED_IO_HD_0_.INV_SOC_DIR/Y
+ sky130_fd_sc_hd__inv_1
Xmux_top_ipin_2.mux_l1_in_1_ chanx_right_in[2] chanx_left_in[2] mux_top_ipin_2.mux_l1_in_2_/S
+ VGND VGND VPWR VPWR mux_top_ipin_2.mux_l1_in_1_/X sky130_fd_sc_hd__mux2_1
Xmem_top_ipin_1.sky130_fd_sc_hd__dfxtp_1_3_ mem_top_ipin_2.sky130_fd_sc_hd__dfxtp_1_2_/CLK
+ mux_top_ipin_1.mux_l3_in_1_/S VGND VGND VPWR VPWR mux_top_ipin_1.mux_l4_in_0_/S
+ sky130_fd_sc_hd__dfxtp_1
XFILLER_13_71 VGND VGND VPWR VPWR sky130_fd_sc_hd__decap_8
XFILLER_1_172 VGND VGND VPWR VPWR sky130_fd_sc_hd__decap_4
X_42_ chanx_left_in[10] VGND VGND VPWR VPWR chanx_right_out[10] sky130_fd_sc_hd__buf_2
XFILLER_18_27 VGND VGND VPWR VPWR sky130_fd_sc_hd__decap_4
Xmux_top_ipin_7.mux_l2_in_0_ mux_top_ipin_7.mux_l1_in_1_/X mux_top_ipin_7.mux_l1_in_0_/X
+ mux_top_ipin_7.mux_l2_in_3_/S VGND VGND VPWR VPWR mux_top_ipin_7.mux_l2_in_0_/X
+ sky130_fd_sc_hd__mux2_1
X_25_ chanx_right_in[7] VGND VGND VPWR VPWR chanx_left_out[7] sky130_fd_sc_hd__buf_2
XFILLER_19_135 VGND VGND VPWR VPWR sky130_fd_sc_hd__decap_12
XPHY_100 VGND VPWR sky130_fd_sc_hd__tapvpwrvgnd_1
XPHY_111 VGND VPWR sky130_fd_sc_hd__tapvpwrvgnd_1
Xmux_top_ipin_7.mux_l1_in_1_ chanx_right_in[3] chanx_left_in[3] mux_top_ipin_7.mux_l1_in_2_/S
+ VGND VGND VPWR VPWR mux_top_ipin_7.mux_l1_in_1_/X sky130_fd_sc_hd__mux2_1
XPHY_2 VGND VGND VPWR VPWR sky130_fd_sc_hd__decap_3
XFILLER_21_141 VGND VGND VPWR VPWR sky130_fd_sc_hd__decap_4
Xlogical_tile_io_mode_io__3.ltile_phy_iopad_0.EMBEDDED_IO_HD_0_.ISOL_EN_GATE logical_tile_io_mode_io__3.ltile_phy_iopad_0.EMBEDDED_IO_HD_0_.ISOL_EN_GATE/A
+ IO_ISOL_N VGND VGND VPWR VPWR _58_/A sky130_fd_sc_hd__or2b_4
Xmem_top_ipin_4.sky130_fd_sc_hd__dfxtp_1_3_ mem_top_ipin_4.sky130_fd_sc_hd__dfxtp_1_3_/CLK
+ mux_top_ipin_4.mux_l3_in_0_/S VGND VGND VPWR VPWR mux_top_ipin_4.mux_l4_in_0_/S
+ sky130_fd_sc_hd__dfxtp_1
Xclkbuf_1_0_0_logical_tile_io_mode_io__0.ltile_phy_iopad_0.EMBEDDED_IO_HD_sky130_fd_sc_hd__dfxtp_1_mem.prog_clk
+ clkbuf_0_logical_tile_io_mode_io__0.ltile_phy_iopad_0.EMBEDDED_IO_HD_sky130_fd_sc_hd__dfxtp_1_mem.prog_clk/X
+ VGND VGND VPWR VPWR clkbuf_1_0_0_logical_tile_io_mode_io__0.ltile_phy_iopad_0.EMBEDDED_IO_HD_sky130_fd_sc_hd__dfxtp_1_mem.prog_clk/X
+ sky130_fd_sc_hd__clkbuf_1
XFILLER_5_126 VGND VGND VPWR VPWR sky130_fd_sc_hd__fill_2
XFILLER_4_30 VGND VGND VPWR VPWR sky130_fd_sc_hd__fill_1
Xmux_top_ipin_2.mux_l1_in_0_ chanx_right_in[0] chanx_left_in[0] mux_top_ipin_2.mux_l1_in_2_/S
+ VGND VGND VPWR VPWR mux_top_ipin_2.mux_l1_in_0_/X sky130_fd_sc_hd__mux2_1
Xmem_top_ipin_1.sky130_fd_sc_hd__dfxtp_1_2_ mem_top_ipin_2.sky130_fd_sc_hd__dfxtp_1_2_/CLK
+ mux_top_ipin_1.mux_l2_in_1_/S VGND VGND VPWR VPWR mux_top_ipin_1.mux_l3_in_1_/S
+ sky130_fd_sc_hd__dfxtp_1
X_41_ chanx_left_in[11] VGND VGND VPWR VPWR chanx_right_out[11] sky130_fd_sc_hd__buf_2
XFILLER_1_53 VGND VGND VPWR VPWR sky130_fd_sc_hd__fill_2
X_24_ chanx_right_in[8] VGND VGND VPWR VPWR chanx_left_out[8] sky130_fd_sc_hd__buf_2
XFILLER_19_147 VGND VGND VPWR VPWR sky130_fd_sc_hd__decap_12
Xmem_top_ipin_7.sky130_fd_sc_hd__dfxtp_1_3_ mem_top_ipin_8.sky130_fd_sc_hd__dfxtp_1_0_/CLK
+ mux_top_ipin_7.mux_l3_in_1_/S VGND VGND VPWR VPWR mux_top_ipin_7.mux_l4_in_0_/S
+ sky130_fd_sc_hd__dfxtp_1
Xmux_top_ipin_0.sky130_fd_sc_hd__buf_4_0_ mux_top_ipin_0.mux_l4_in_0_/X VGND VGND
+ VPWR VPWR bottom_grid_pin_0_ sky130_fd_sc_hd__buf_4
XPHY_112 VGND VPWR sky130_fd_sc_hd__tapvpwrvgnd_1
XPHY_101 VGND VPWR sky130_fd_sc_hd__tapvpwrvgnd_1
XFILLER_16_139 VGND VGND VPWR VPWR sky130_fd_sc_hd__decap_12
Xmux_top_ipin_7.mux_l1_in_0_ chanx_right_in[1] chanx_left_in[1] mux_top_ipin_7.mux_l1_in_2_/S
+ VGND VGND VPWR VPWR mux_top_ipin_7.mux_l1_in_0_/X sky130_fd_sc_hd__mux2_1
XPHY_3 VGND VGND VPWR VPWR sky130_fd_sc_hd__decap_3
XFILLER_7_30 VGND VGND VPWR VPWR sky130_fd_sc_hd__fill_2
XFILLER_21_164 VGND VGND VPWR VPWR sky130_fd_sc_hd__decap_12
XFILLER_21_153 VGND VGND VPWR VPWR sky130_fd_sc_hd__fill_1
Xmem_top_ipin_4.sky130_fd_sc_hd__dfxtp_1_2_ mem_top_ipin_4.sky130_fd_sc_hd__dfxtp_1_2_/CLK
+ mux_top_ipin_4.mux_l2_in_0_/S VGND VGND VPWR VPWR mux_top_ipin_4.mux_l3_in_0_/S
+ sky130_fd_sc_hd__dfxtp_1
Xlogical_tile_io_mode_io__6.ltile_phy_iopad_0.EMBEDDED_IO_HD_0_.IN_PROTECT_GATE gfpga_pad_EMBEDDED_IO_HD_SOC_IN[6]
+ logical_tile_io_mode_io__6.ltile_phy_iopad_0.EMBEDDED_IO_HD_0_.INV_SOC_DIR/Y VGND
+ VGND VPWR VPWR top_width_0_height_0__pin_13_lower sky130_fd_sc_hd__ebufn_4
XFILLER_12_186 VGND VGND VPWR VPWR sky130_fd_sc_hd__decap_4
Xmem_top_ipin_1.sky130_fd_sc_hd__dfxtp_1_1_ mem_top_ipin_2.sky130_fd_sc_hd__dfxtp_1_2_/CLK
+ mux_top_ipin_1.mux_l1_in_1_/S VGND VGND VPWR VPWR mux_top_ipin_1.mux_l2_in_1_/S
+ sky130_fd_sc_hd__dfxtp_1
XFILLER_4_53 VGND VGND VPWR VPWR sky130_fd_sc_hd__decap_3
X_40_ chanx_left_in[12] VGND VGND VPWR VPWR chanx_right_out[12] sky130_fd_sc_hd__buf_2
XFILLER_1_32 VGND VGND VPWR VPWR sky130_fd_sc_hd__decap_12
XFILLER_1_10 VGND VGND VPWR VPWR sky130_fd_sc_hd__fill_2
X_23_ chanx_right_in[9] VGND VGND VPWR VPWR chanx_left_out[9] sky130_fd_sc_hd__buf_2
XFILLER_19_159 VGND VGND VPWR VPWR sky130_fd_sc_hd__decap_12
Xmem_top_ipin_7.sky130_fd_sc_hd__dfxtp_1_2_ mem_top_ipin_8.sky130_fd_sc_hd__dfxtp_1_0_/CLK
+ mux_top_ipin_7.mux_l2_in_3_/S VGND VGND VPWR VPWR mux_top_ipin_7.mux_l3_in_1_/S
+ sky130_fd_sc_hd__dfxtp_1
XFILLER_10_63 VGND VGND VPWR VPWR sky130_fd_sc_hd__decap_8
XFILLER_10_30 VGND VGND VPWR VPWR sky130_fd_sc_hd__fill_1
XPHY_113 VGND VPWR sky130_fd_sc_hd__tapvpwrvgnd_1
XFILLER_21_40 VGND VGND VPWR VPWR sky130_fd_sc_hd__decap_12
XPHY_102 VGND VPWR sky130_fd_sc_hd__tapvpwrvgnd_1
XFILLER_15_184 VGND VGND VPWR VPWR sky130_fd_sc_hd__decap_6
XFILLER_15_173 VGND VGND VPWR VPWR sky130_fd_sc_hd__decap_4
XPHY_4 VGND VGND VPWR VPWR sky130_fd_sc_hd__decap_3
Xlogical_tile_io_mode_io__3.ltile_phy_iopad_0.EMBEDDED_IO_HD_0_.IN_PROTECT_GATE gfpga_pad_EMBEDDED_IO_HD_SOC_IN[3]
+ logical_tile_io_mode_io__3.ltile_phy_iopad_0.EMBEDDED_IO_HD_0_.INV_SOC_DIR/Y VGND
+ VGND VPWR VPWR top_width_0_height_0__pin_7_lower sky130_fd_sc_hd__ebufn_4
XFILLER_21_176 VGND VGND VPWR VPWR sky130_fd_sc_hd__decap_6
Xmem_top_ipin_4.sky130_fd_sc_hd__dfxtp_1_1_ mem_top_ipin_2.sky130_fd_sc_hd__dfxtp_1_2_/CLK
+ mux_top_ipin_4.mux_l1_in_1_/S VGND VGND VPWR VPWR mux_top_ipin_4.mux_l2_in_0_/S
+ sky130_fd_sc_hd__dfxtp_1
XFILLER_12_154 VGND VGND VPWR VPWR sky130_fd_sc_hd__decap_6
XFILLER_8_114 VGND VGND VPWR VPWR sky130_fd_sc_hd__decap_6
XFILLER_4_10 VGND VGND VPWR VPWR sky130_fd_sc_hd__fill_2
XFILLER_4_32 VGND VGND VPWR VPWR sky130_fd_sc_hd__decap_4
Xlogical_tile_io_mode_io__6.ltile_phy_iopad_0.EMBEDDED_IO_HD_sky130_fd_sc_hd__dfxtp_1_mem.sky130_fd_sc_hd__dfxtp_1_0_
+ mem_top_ipin_4.sky130_fd_sc_hd__dfxtp_1_3_/CLK logical_tile_io_mode_io__5.ltile_phy_iopad_0.EMBEDDED_IO_HD_0_.ISOL_EN_GATE/A
+ VGND VGND VPWR VPWR logical_tile_io_mode_io__6.ltile_phy_iopad_0.EMBEDDED_IO_HD_0_.ISOL_EN_GATE/A
+ sky130_fd_sc_hd__dfxtp_1
XFILLER_1_142 VGND VGND VPWR VPWR sky130_fd_sc_hd__fill_2
Xlogical_tile_io_mode_io__4.ltile_phy_iopad_0.EMBEDDED_IO_HD_0_.INV_SOC_DIR _57_/A
+ VGND VGND VPWR VPWR logical_tile_io_mode_io__4.ltile_phy_iopad_0.EMBEDDED_IO_HD_0_.INV_SOC_DIR/Y
+ sky130_fd_sc_hd__inv_1
Xmem_top_ipin_1.sky130_fd_sc_hd__dfxtp_1_0_ mem_top_ipin_4.sky130_fd_sc_hd__dfxtp_1_2_/CLK
+ mux_top_ipin_0.mux_l4_in_0_/S VGND VGND VPWR VPWR mux_top_ipin_1.mux_l1_in_1_/S
+ sky130_fd_sc_hd__dfxtp_1
XFILLER_1_44 VGND VGND VPWR VPWR sky130_fd_sc_hd__decap_6
X_22_ chanx_right_in[10] VGND VGND VPWR VPWR chanx_left_out[10] sky130_fd_sc_hd__buf_2
XFILLER_19_62 VGND VGND VPWR VPWR sky130_fd_sc_hd__decap_12
Xmem_top_ipin_7.sky130_fd_sc_hd__dfxtp_1_1_ mem_top_ipin_8.sky130_fd_sc_hd__dfxtp_1_0_/CLK
+ mux_top_ipin_7.mux_l1_in_2_/S VGND VGND VPWR VPWR mux_top_ipin_7.mux_l2_in_3_/S
+ sky130_fd_sc_hd__dfxtp_1
XFILLER_18_3 VGND VGND VPWR VPWR sky130_fd_sc_hd__decap_8
XPHY_114 VGND VPWR sky130_fd_sc_hd__tapvpwrvgnd_1
XFILLER_21_52 VGND VGND VPWR VPWR sky130_fd_sc_hd__fill_1
XPHY_103 VGND VPWR sky130_fd_sc_hd__tapvpwrvgnd_1
Xlogical_tile_io_mode_io__0.ltile_phy_iopad_0.EMBEDDED_IO_HD_0_.IN_PROTECT_GATE gfpga_pad_EMBEDDED_IO_HD_SOC_IN[0]
+ logical_tile_io_mode_io__0.ltile_phy_iopad_0.EMBEDDED_IO_HD_0_.INV_SOC_DIR/Y VGND
+ VGND VPWR VPWR top_width_0_height_0__pin_1_lower sky130_fd_sc_hd__ebufn_4
XPHY_5 VGND VGND VPWR VPWR sky130_fd_sc_hd__decap_3
XFILLER_7_10 VGND VGND VPWR VPWR sky130_fd_sc_hd__decap_4
Xmem_top_ipin_4.sky130_fd_sc_hd__dfxtp_1_0_ mem_top_ipin_2.sky130_fd_sc_hd__dfxtp_1_2_/CLK
+ mux_top_ipin_3.mux_l4_in_0_/S VGND VGND VPWR VPWR mux_top_ipin_4.mux_l1_in_1_/S
+ sky130_fd_sc_hd__dfxtp_1
XFILLER_12_122 VGND VGND VPWR VPWR sky130_fd_sc_hd__fill_2
XFILLER_7_181 VGND VGND VPWR VPWR sky130_fd_sc_hd__fill_2
XFILLER_4_22 VGND VGND VPWR VPWR sky130_fd_sc_hd__decap_8
XFILLER_4_151 VGND VGND VPWR VPWR sky130_fd_sc_hd__fill_2
Xmux_top_ipin_3.mux_l2_in_3_ _12_/HI chanx_right_in[19] mux_top_ipin_3.mux_l2_in_2_/S
+ VGND VGND VPWR VPWR mux_top_ipin_3.mux_l2_in_3_/X sky130_fd_sc_hd__mux2_1
XFILLER_1_176 VGND VGND VPWR VPWR sky130_fd_sc_hd__fill_1
XFILLER_1_121 VGND VGND VPWR VPWR sky130_fd_sc_hd__fill_1
X_21_ chanx_right_in[11] VGND VGND VPWR VPWR chanx_left_out[11] sky130_fd_sc_hd__buf_2
XFILLER_19_74 VGND VGND VPWR VPWR sky130_fd_sc_hd__decap_12
Xmem_top_ipin_7.sky130_fd_sc_hd__dfxtp_1_0_ mem_top_ipin_8.sky130_fd_sc_hd__dfxtp_1_0_/CLK
+ mux_top_ipin_6.mux_l4_in_0_/S VGND VGND VPWR VPWR mux_top_ipin_7.mux_l1_in_2_/S
+ sky130_fd_sc_hd__dfxtp_1
XFILLER_10_32 VGND VGND VPWR VPWR sky130_fd_sc_hd__decap_4
Xmux_top_ipin_3.mux_l4_in_0_ mux_top_ipin_3.mux_l3_in_1_/X mux_top_ipin_3.mux_l3_in_0_/X
+ mux_top_ipin_3.mux_l4_in_0_/S VGND VGND VPWR VPWR mux_top_ipin_3.mux_l4_in_0_/X
+ sky130_fd_sc_hd__mux2_1
XPHY_115 VGND VPWR sky130_fd_sc_hd__tapvpwrvgnd_1
XPHY_104 VGND VPWR sky130_fd_sc_hd__tapvpwrvgnd_1
XFILLER_16_109 VGND VGND VPWR VPWR sky130_fd_sc_hd__decap_3