* NGSPICE file created from cbx_1__2_.ext - technology: sky130A

* Black-box entry subcircuit for sky130_fd_sc_hd__dfxtp_1 abstract view
.subckt sky130_fd_sc_hd__dfxtp_1 CLK D VGND VNB VPB VPWR Q
.ends

* Black-box entry subcircuit for sky130_fd_sc_hd__decap_8 abstract view
.subckt sky130_fd_sc_hd__decap_8 VGND VNB VPB VPWR
.ends

* Black-box entry subcircuit for sky130_fd_sc_hd__mux2_1 abstract view
.subckt sky130_fd_sc_hd__mux2_1 A0 A1 S VGND VNB VPB VPWR X
.ends

* Black-box entry subcircuit for sky130_fd_sc_hd__fill_2 abstract view
.subckt sky130_fd_sc_hd__fill_2 VGND VNB VPB VPWR
.ends

* Black-box entry subcircuit for sky130_fd_sc_hd__buf_2 abstract view
.subckt sky130_fd_sc_hd__buf_2 A VGND VNB VPB VPWR X
.ends

* Black-box entry subcircuit for sky130_fd_sc_hd__decap_3 abstract view
.subckt sky130_fd_sc_hd__decap_3 VGND VNB VPB VPWR
.ends

* Black-box entry subcircuit for sky130_fd_sc_hd__decap_4 abstract view
.subckt sky130_fd_sc_hd__decap_4 VGND VNB VPB VPWR
.ends

* Black-box entry subcircuit for sky130_fd_sc_hd__decap_12 abstract view
.subckt sky130_fd_sc_hd__decap_12 VGND VNB VPB VPWR
.ends

* Black-box entry subcircuit for sky130_fd_sc_hd__clkbuf_1 abstract view
.subckt sky130_fd_sc_hd__clkbuf_1 A VGND VNB VPB VPWR X
.ends

* Black-box entry subcircuit for sky130_fd_sc_hd__decap_6 abstract view
.subckt sky130_fd_sc_hd__decap_6 VGND VNB VPB VPWR
.ends

* Black-box entry subcircuit for sky130_fd_sc_hd__fill_1 abstract view
.subckt sky130_fd_sc_hd__fill_1 VGND VNB VPB VPWR
.ends

* Black-box entry subcircuit for sky130_fd_sc_hd__buf_4 abstract view
.subckt sky130_fd_sc_hd__buf_4 A VGND VNB VPB VPWR X
.ends

* Black-box entry subcircuit for sky130_fd_sc_hd__buf_8 abstract view
.subckt sky130_fd_sc_hd__buf_8 A VGND VNB VPB VPWR X
.ends

* Black-box entry subcircuit for sky130_fd_sc_hd__conb_1 abstract view
.subckt sky130_fd_sc_hd__conb_1 VGND VNB VPB VPWR HI LO
.ends

* Black-box entry subcircuit for sky130_fd_sc_hd__tapvpwrvgnd_1 abstract view
.subckt sky130_fd_sc_hd__tapvpwrvgnd_1 VGND VPWR
.ends

* Black-box entry subcircuit for sky130_fd_sc_hd__inv_1 abstract view
.subckt sky130_fd_sc_hd__inv_1 A VGND VNB VPB VPWR Y
.ends

* Black-box entry subcircuit for sky130_fd_sc_hd__ebufn_4 abstract view
.subckt sky130_fd_sc_hd__ebufn_4 A TE_B VGND VNB VPB VPWR Z
.ends

* Black-box entry subcircuit for sky130_fd_sc_hd__clkbuf_16 abstract view
.subckt sky130_fd_sc_hd__clkbuf_16 A VGND VNB VPB VPWR X
.ends

* Black-box entry subcircuit for sky130_fd_sc_hd__or2b_4 abstract view
.subckt sky130_fd_sc_hd__or2b_4 A B_N VGND VNB VPB VPWR X
.ends

.subckt cbx_1__2_ IO_ISOL_N SC_IN_BOT SC_IN_TOP SC_OUT_BOT SC_OUT_TOP bottom_grid_pin_0_
+ bottom_grid_pin_10_ bottom_grid_pin_11_ bottom_grid_pin_12_ bottom_grid_pin_13_
+ bottom_grid_pin_14_ bottom_grid_pin_15_ bottom_grid_pin_1_ bottom_grid_pin_2_ bottom_grid_pin_3_
+ bottom_grid_pin_4_ bottom_grid_pin_5_ bottom_grid_pin_6_ bottom_grid_pin_7_ bottom_grid_pin_8_
+ bottom_grid_pin_9_ bottom_width_0_height_0__pin_0_ bottom_width_0_height_0__pin_1_lower
+ bottom_width_0_height_0__pin_1_upper ccff_head ccff_tail chanx_left_in[0] chanx_left_in[10]
+ chanx_left_in[11] chanx_left_in[12] chanx_left_in[13] chanx_left_in[14] chanx_left_in[15]
+ chanx_left_in[16] chanx_left_in[17] chanx_left_in[18] chanx_left_in[19] chanx_left_in[1]
+ chanx_left_in[2] chanx_left_in[3] chanx_left_in[4] chanx_left_in[5] chanx_left_in[6]
+ chanx_left_in[7] chanx_left_in[8] chanx_left_in[9] chanx_left_out[0] chanx_left_out[10]
+ chanx_left_out[11] chanx_left_out[12] chanx_left_out[13] chanx_left_out[14] chanx_left_out[15]
+ chanx_left_out[16] chanx_left_out[17] chanx_left_out[18] chanx_left_out[19] chanx_left_out[1]
+ chanx_left_out[2] chanx_left_out[3] chanx_left_out[4] chanx_left_out[5] chanx_left_out[6]
+ chanx_left_out[7] chanx_left_out[8] chanx_left_out[9] chanx_right_in[0] chanx_right_in[10]
+ chanx_right_in[11] chanx_right_in[12] chanx_right_in[13] chanx_right_in[14] chanx_right_in[15]
+ chanx_right_in[16] chanx_right_in[17] chanx_right_in[18] chanx_right_in[19] chanx_right_in[1]
+ chanx_right_in[2] chanx_right_in[3] chanx_right_in[4] chanx_right_in[5] chanx_right_in[6]
+ chanx_right_in[7] chanx_right_in[8] chanx_right_in[9] chanx_right_out[0] chanx_right_out[10]
+ chanx_right_out[11] chanx_right_out[12] chanx_right_out[13] chanx_right_out[14]
+ chanx_right_out[15] chanx_right_out[16] chanx_right_out[17] chanx_right_out[18]
+ chanx_right_out[19] chanx_right_out[1] chanx_right_out[2] chanx_right_out[3] chanx_right_out[4]
+ chanx_right_out[5] chanx_right_out[6] chanx_right_out[7] chanx_right_out[8] chanx_right_out[9]
+ gfpga_pad_EMBEDDED_IO_HD_SOC_DIR gfpga_pad_EMBEDDED_IO_HD_SOC_IN gfpga_pad_EMBEDDED_IO_HD_SOC_OUT
+ prog_clk_0_S_in prog_clk_0_W_out top_grid_pin_0_ VPWR VGND
Xmem_top_ipin_8.sky130_fd_sc_hd__dfxtp_1_0_ mem_top_ipin_7.sky130_fd_sc_hd__dfxtp_1_1_/CLK
+ mux_top_ipin_7.mux_l4_in_0_/S VGND VGND VPWR VPWR mux_top_ipin_8.mux_l1_in_1_/S
+ sky130_fd_sc_hd__dfxtp_1
XFILLER_13_111 VGND VGND VPWR VPWR sky130_fd_sc_hd__decap_8
Xmux_top_ipin_13.mux_l3_in_0_ mux_top_ipin_13.mux_l2_in_1_/X mux_top_ipin_13.mux_l2_in_0_/X
+ mux_top_ipin_13.mux_l3_in_0_/S VGND VGND VPWR VPWR mux_top_ipin_13.mux_l3_in_0_/X
+ sky130_fd_sc_hd__mux2_1
XFILLER_6_129 VGND VGND VPWR VPWR sky130_fd_sc_hd__fill_2
X_66_ chanx_left_in[9] VGND VGND VPWR VPWR chanx_right_out[9] sky130_fd_sc_hd__buf_2
Xmux_top_ipin_6.mux_l2_in_0_ chanx_left_in[3] mux_top_ipin_6.mux_l1_in_0_/X mux_top_ipin_6.mux_l2_in_3_/S
+ VGND VGND VPWR VPWR mux_top_ipin_6.mux_l2_in_0_/X sky130_fd_sc_hd__mux2_1
XFILLER_0_46 VGND VGND VPWR VPWR sky130_fd_sc_hd__fill_2
XFILLER_0_35 VGND VGND VPWR VPWR sky130_fd_sc_hd__fill_2
XFILLER_9_66 VGND VGND VPWR VPWR sky130_fd_sc_hd__decap_3
X_49_ chanx_right_in[12] VGND VGND VPWR VPWR chanx_left_out[12] sky130_fd_sc_hd__buf_2
Xmux_top_ipin_13.mux_l2_in_1_ chanx_left_in[10] chanx_right_in[2] mux_top_ipin_13.mux_l2_in_0_/S
+ VGND VGND VPWR VPWR mux_top_ipin_13.mux_l2_in_1_/X sky130_fd_sc_hd__mux2_1
XFILLER_20_76 VGND VGND VPWR VPWR sky130_fd_sc_hd__decap_4
XFILLER_20_32 VGND VGND VPWR VPWR sky130_fd_sc_hd__decap_12
Xclkbuf_3_3_0_logical_tile_io_mode_io__0.ltile_phy_iopad_0.EMBEDDED_IO_HD_sky130_fd_sc_hd__dfxtp_1_mem.prog_clk
+ clkbuf_3_3_0_logical_tile_io_mode_io__0.ltile_phy_iopad_0.EMBEDDED_IO_HD_sky130_fd_sc_hd__dfxtp_1_mem.prog_clk/A
+ VGND VGND VPWR VPWR mem_top_ipin_7.sky130_fd_sc_hd__dfxtp_1_2_/CLK sky130_fd_sc_hd__clkbuf_1
XFILLER_13_3 VGND VGND VPWR VPWR sky130_fd_sc_hd__fill_2
XFILLER_17_109 VGND VGND VPWR VPWR sky130_fd_sc_hd__fill_2
XFILLER_15_21 VGND VGND VPWR VPWR sky130_fd_sc_hd__decap_4
XFILLER_15_10 VGND VGND VPWR VPWR sky130_fd_sc_hd__fill_2
XFILLER_16_186 VGND VGND VPWR VPWR sky130_fd_sc_hd__decap_4
XFILLER_16_120 VGND VGND VPWR VPWR sky130_fd_sc_hd__fill_2
Xmux_top_ipin_1.mux_l1_in_0_ chanx_right_in[0] chanx_left_in[0] mux_top_ipin_1.mux_l1_in_0_/S
+ VGND VGND VPWR VPWR mux_top_ipin_1.mux_l1_in_0_/X sky130_fd_sc_hd__mux2_1
XFILLER_3_68 VGND VGND VPWR VPWR sky130_fd_sc_hd__decap_4
XFILLER_12_66 VGND VGND VPWR VPWR sky130_fd_sc_hd__fill_2
X_65_ chanx_left_in[8] VGND VGND VPWR VPWR chanx_right_out[8] sky130_fd_sc_hd__buf_2
XFILLER_0_69 VGND VGND VPWR VPWR sky130_fd_sc_hd__fill_2
XFILLER_9_78 VGND VGND VPWR VPWR sky130_fd_sc_hd__decap_3
X_48_ chanx_right_in[11] VGND VGND VPWR VPWR chanx_left_out[11] sky130_fd_sc_hd__buf_2
Xmux_top_ipin_13.mux_l2_in_0_ chanx_left_in[2] mux_top_ipin_13.mux_l1_in_0_/X mux_top_ipin_13.mux_l2_in_0_/S
+ VGND VGND VPWR VPWR mux_top_ipin_13.mux_l2_in_0_/X sky130_fd_sc_hd__mux2_1
Xmux_top_ipin_6.mux_l1_in_0_ chanx_right_in[1] chanx_left_in[1] mux_top_ipin_6.mux_l1_in_0_/S
+ VGND VGND VPWR VPWR mux_top_ipin_6.mux_l1_in_0_/X sky130_fd_sc_hd__mux2_1
XFILLER_20_44 VGND VGND VPWR VPWR sky130_fd_sc_hd__decap_4
XFILLER_19_184 VGND VGND VPWR VPWR sky130_fd_sc_hd__decap_6
XFILLER_6_46 VGND VGND VPWR VPWR sky130_fd_sc_hd__fill_1
Xmem_bottom_ipin_0.sky130_fd_sc_hd__dfxtp_1_3_ mem_top_ipin_0.sky130_fd_sc_hd__dfxtp_1_0_/CLK
+ mux_bottom_ipin_0.mux_l3_in_1_/S VGND VGND VPWR VPWR mux_bottom_ipin_0.mux_l4_in_0_/S
+ sky130_fd_sc_hd__dfxtp_1
XFILLER_13_179 VGND VGND VPWR VPWR sky130_fd_sc_hd__decap_4
XFILLER_8_150 VGND VGND VPWR VPWR sky130_fd_sc_hd__decap_3
XFILLER_12_89 VGND VGND VPWR VPWR sky130_fd_sc_hd__decap_3
X_64_ chanx_left_in[7] VGND VGND VPWR VPWR chanx_right_out[7] sky130_fd_sc_hd__buf_2
XFILLER_2_178 VGND VGND VPWR VPWR sky130_fd_sc_hd__fill_2
XFILLER_3_3 VGND VGND VPWR VPWR sky130_fd_sc_hd__fill_1
Xmux_top_ipin_4.sky130_fd_sc_hd__buf_4_0_ mux_top_ipin_4.mux_l4_in_0_/X VGND VGND
+ VPWR VPWR bottom_grid_pin_4_ sky130_fd_sc_hd__buf_4
X_47_ chanx_right_in[10] VGND VGND VPWR VPWR chanx_left_out[10] sky130_fd_sc_hd__buf_2
XFILLER_18_99 VGND VGND VPWR VPWR sky130_fd_sc_hd__fill_1
XFILLER_6_69 VGND VGND VPWR VPWR sky130_fd_sc_hd__fill_2
Xmux_top_ipin_13.mux_l1_in_0_ chanx_right_in[0] chanx_left_in[0] mux_top_ipin_13.mux_l1_in_0_/S
+ VGND VGND VPWR VPWR mux_top_ipin_13.mux_l1_in_0_/X sky130_fd_sc_hd__mux2_1
XFILLER_15_56 VGND VGND VPWR VPWR sky130_fd_sc_hd__decap_4
XFILLER_15_45 VGND VGND VPWR VPWR sky130_fd_sc_hd__fill_2
XFILLER_15_34 VGND VGND VPWR VPWR sky130_fd_sc_hd__fill_2
XFILLER_22_125 VGND VGND VPWR VPWR sky130_fd_sc_hd__decap_8
Xmem_bottom_ipin_0.sky130_fd_sc_hd__dfxtp_1_2_ mem_top_ipin_0.sky130_fd_sc_hd__dfxtp_1_0_/CLK
+ mux_bottom_ipin_0.mux_l2_in_2_/S VGND VGND VPWR VPWR mux_bottom_ipin_0.mux_l3_in_1_/S
+ sky130_fd_sc_hd__dfxtp_1
XFILLER_13_158 VGND VGND VPWR VPWR sky130_fd_sc_hd__decap_12
XFILLER_3_26 VGND VGND VPWR VPWR sky130_fd_sc_hd__fill_2
X_63_ chanx_left_in[6] VGND VGND VPWR VPWR chanx_right_out[6] sky130_fd_sc_hd__buf_2
Xprog_clk_0_FTB00 prog_clk_0_S_in VGND VGND VPWR VPWR prog_clk_0_FTB00/X sky130_fd_sc_hd__buf_8
XFILLER_2_135 VGND VGND VPWR VPWR sky130_fd_sc_hd__fill_2
XFILLER_2_146 VGND VGND VPWR VPWR sky130_fd_sc_hd__decap_6
X_46_ chanx_right_in[9] VGND VGND VPWR VPWR chanx_left_out[9] sky130_fd_sc_hd__buf_2
XFILLER_9_58 VGND VGND VPWR VPWR sky130_fd_sc_hd__decap_3
X_29_ VGND VGND VPWR VPWR _29_/HI _29_/LO sky130_fd_sc_hd__conb_1
Xmux_top_ipin_11.sky130_fd_sc_hd__buf_4_0_ mux_top_ipin_11.mux_l4_in_0_/X VGND VGND
+ VPWR VPWR bottom_grid_pin_11_ sky130_fd_sc_hd__buf_4
Xmux_bottom_ipin_0.sky130_fd_sc_hd__buf_4_0_ mux_bottom_ipin_0.mux_l4_in_0_/X VGND
+ VGND VPWR VPWR top_grid_pin_0_ sky130_fd_sc_hd__buf_4
XFILLER_19_120 VGND VGND VPWR VPWR sky130_fd_sc_hd__fill_2
XFILLER_10_90 VGND VGND VPWR VPWR sky130_fd_sc_hd__fill_2
Xmem_bottom_ipin_0.sky130_fd_sc_hd__dfxtp_1_1_ mem_top_ipin_7.sky130_fd_sc_hd__dfxtp_1_2_/CLK
+ mux_bottom_ipin_0.mux_l1_in_1_/S VGND VGND VPWR VPWR mux_bottom_ipin_0.mux_l2_in_2_/S
+ sky130_fd_sc_hd__dfxtp_1
XFILLER_22_159 VGND VGND VPWR VPWR sky130_fd_sc_hd__fill_2
XFILLER_21_181 VGND VGND VPWR VPWR sky130_fd_sc_hd__fill_2
XFILLER_13_137 VGND VGND VPWR VPWR sky130_fd_sc_hd__decap_4
Xmux_top_ipin_2.mux_l2_in_3_ _31_/HI chanx_right_in[15] mux_top_ipin_2.mux_l2_in_2_/S
+ VGND VGND VPWR VPWR mux_top_ipin_2.mux_l2_in_3_/X sky130_fd_sc_hd__mux2_1
XFILLER_10_129 VGND VGND VPWR VPWR sky130_fd_sc_hd__fill_2
XFILLER_10_118 VGND VGND VPWR VPWR sky130_fd_sc_hd__fill_2
XFILLER_8_163 VGND VGND VPWR VPWR sky130_fd_sc_hd__fill_2
XFILLER_8_174 VGND VGND VPWR VPWR sky130_fd_sc_hd__decap_8
XFILLER_5_155 VGND VGND VPWR VPWR sky130_fd_sc_hd__fill_2
X_62_ chanx_left_in[5] VGND VGND VPWR VPWR chanx_right_out[5] sky130_fd_sc_hd__buf_2
XFILLER_5_166 VGND VGND VPWR VPWR sky130_fd_sc_hd__decap_12
XFILLER_5_188 VGND VGND VPWR VPWR sky130_fd_sc_hd__fill_2
XFILLER_4_70 VGND VGND VPWR VPWR sky130_fd_sc_hd__fill_2
XFILLER_4_81 VGND VGND VPWR VPWR sky130_fd_sc_hd__fill_2
Xmux_top_ipin_2.mux_l4_in_0_ mux_top_ipin_2.mux_l3_in_1_/X mux_top_ipin_2.mux_l3_in_0_/X
+ mux_top_ipin_2.mux_l4_in_0_/S VGND VGND VPWR VPWR mux_top_ipin_2.mux_l4_in_0_/X
+ sky130_fd_sc_hd__mux2_1
X_45_ chanx_right_in[8] VGND VGND VPWR VPWR chanx_left_out[8] sky130_fd_sc_hd__buf_2
XFILLER_1_93 VGND VGND VPWR VPWR sky130_fd_sc_hd__decap_4
XFILLER_1_82 VGND VGND VPWR VPWR sky130_fd_sc_hd__fill_2
XFILLER_1_71 VGND VGND VPWR VPWR sky130_fd_sc_hd__fill_2
XFILLER_1_60 VGND VGND VPWR VPWR sky130_fd_sc_hd__fill_1
X_28_ VGND VGND VPWR VPWR _28_/HI _28_/LO sky130_fd_sc_hd__conb_1
Xmux_top_ipin_7.mux_l2_in_3_ _19_/HI chanx_right_in[18] mux_top_ipin_7.mux_l2_in_1_/S
+ VGND VGND VPWR VPWR mux_top_ipin_7.mux_l2_in_3_/X sky130_fd_sc_hd__mux2_1
XFILLER_20_58 VGND VGND VPWR VPWR sky130_fd_sc_hd__fill_2
Xmux_top_ipin_2.mux_l3_in_1_ mux_top_ipin_2.mux_l2_in_3_/X mux_top_ipin_2.mux_l2_in_2_/X
+ mux_top_ipin_2.mux_l3_in_0_/S VGND VGND VPWR VPWR mux_top_ipin_2.mux_l3_in_1_/X
+ sky130_fd_sc_hd__mux2_1
XFILLER_6_27 VGND VGND VPWR VPWR sky130_fd_sc_hd__decap_4
XFILLER_21_90 VGND VGND VPWR VPWR sky130_fd_sc_hd__fill_2
Xmem_bottom_ipin_0.sky130_fd_sc_hd__dfxtp_1_0_ mem_top_ipin_7.sky130_fd_sc_hd__dfxtp_1_2_/CLK
+ ccff_head VGND VGND VPWR VPWR mux_bottom_ipin_0.mux_l1_in_1_/S sky130_fd_sc_hd__dfxtp_1
XFILLER_16_157 VGND VGND VPWR VPWR sky130_fd_sc_hd__decap_6
XFILLER_16_102 VGND VGND VPWR VPWR sky130_fd_sc_hd__decap_6
XFILLER_21_160 VGND VGND VPWR VPWR sky130_fd_sc_hd__fill_2
Xmux_top_ipin_2.mux_l2_in_2_ chanx_left_in[15] chanx_right_in[7] mux_top_ipin_2.mux_l2_in_2_/S
+ VGND VGND VPWR VPWR mux_top_ipin_2.mux_l2_in_2_/X sky130_fd_sc_hd__mux2_1
XFILLER_9_109 VGND VGND VPWR VPWR sky130_fd_sc_hd__fill_2
Xmux_top_ipin_7.mux_l4_in_0_ mux_top_ipin_7.mux_l3_in_1_/X mux_top_ipin_7.mux_l3_in_0_/X
+ mux_top_ipin_7.mux_l4_in_0_/S VGND VGND VPWR VPWR mux_top_ipin_7.mux_l4_in_0_/X
+ sky130_fd_sc_hd__mux2_1
XFILLER_16_90 VGND VGND VPWR VPWR sky130_fd_sc_hd__fill_2
XFILLER_8_186 VGND VGND VPWR VPWR sky130_fd_sc_hd__decap_4
XFILLER_12_48 VGND VGND VPWR VPWR sky130_fd_sc_hd__fill_2
X_61_ chanx_left_in[4] VGND VGND VPWR VPWR chanx_right_out[4] sky130_fd_sc_hd__buf_2
XFILLER_5_123 VGND VGND VPWR VPWR sky130_fd_sc_hd__decap_4
XFILLER_5_178 VGND VGND VPWR VPWR sky130_fd_sc_hd__decap_4
Xmux_top_ipin_7.mux_l3_in_1_ mux_top_ipin_7.mux_l2_in_3_/X mux_top_ipin_7.mux_l2_in_2_/X
+ mux_top_ipin_7.mux_l3_in_0_/S VGND VGND VPWR VPWR mux_top_ipin_7.mux_l3_in_1_/X
+ sky130_fd_sc_hd__mux2_1
XFILLER_13_91 VGND VGND VPWR VPWR sky130_fd_sc_hd__decap_4
XFILLER_0_29 VGND VGND VPWR VPWR sky130_fd_sc_hd__fill_2
XFILLER_0_18 VGND VGND VPWR VPWR sky130_fd_sc_hd__fill_2
XFILLER_9_38 VGND VGND VPWR VPWR sky130_fd_sc_hd__decap_4
XFILLER_1_170 VGND VGND VPWR VPWR sky130_fd_sc_hd__fill_2
X_44_ chanx_right_in[7] VGND VGND VPWR VPWR chanx_left_out[7] sky130_fd_sc_hd__buf_2
X_27_ VGND VGND VPWR VPWR _27_/HI _27_/LO sky130_fd_sc_hd__conb_1
Xmux_top_ipin_7.mux_l2_in_2_ chanx_left_in[18] chanx_right_in[12] mux_top_ipin_7.mux_l2_in_1_/S
+ VGND VGND VPWR VPWR mux_top_ipin_7.mux_l2_in_2_/X sky130_fd_sc_hd__mux2_1
XFILLER_20_48 VGND VGND VPWR VPWR sky130_fd_sc_hd__fill_1
XFILLER_20_15 VGND VGND VPWR VPWR sky130_fd_sc_hd__decap_12
XFILLER_19_166 VGND VGND VPWR VPWR sky130_fd_sc_hd__decap_4
Xmux_top_ipin_2.mux_l3_in_0_ mux_top_ipin_2.mux_l2_in_1_/X mux_top_ipin_2.mux_l2_in_0_/X
+ mux_top_ipin_2.mux_l3_in_0_/S VGND VGND VPWR VPWR mux_top_ipin_2.mux_l3_in_0_/X
+ sky130_fd_sc_hd__mux2_1
Xmux_top_ipin_14.mux_l2_in_3_ _29_/HI chanx_right_in[19] mux_top_ipin_14.mux_l2_in_3_/S
+ VGND VGND VPWR VPWR mux_top_ipin_14.mux_l2_in_3_/X sky130_fd_sc_hd__mux2_1
XPHY_120 VGND VPWR sky130_fd_sc_hd__tapvpwrvgnd_1
XPHY_0 VGND VGND VPWR VPWR sky130_fd_sc_hd__decap_3
Xclkbuf_3_4_0_logical_tile_io_mode_io__0.ltile_phy_iopad_0.EMBEDDED_IO_HD_sky130_fd_sc_hd__dfxtp_1_mem.prog_clk
+ clkbuf_3_5_0_logical_tile_io_mode_io__0.ltile_phy_iopad_0.EMBEDDED_IO_HD_sky130_fd_sc_hd__dfxtp_1_mem.prog_clk/A
+ VGND VGND VPWR VPWR mem_top_ipin_9.sky130_fd_sc_hd__dfxtp_1_1_/CLK sky130_fd_sc_hd__clkbuf_1
Xmux_top_ipin_2.mux_l2_in_1_ chanx_left_in[7] chanx_right_in[3] mux_top_ipin_2.mux_l2_in_2_/S
+ VGND VGND VPWR VPWR mux_top_ipin_2.mux_l2_in_1_/X sky130_fd_sc_hd__mux2_1
Xmux_top_ipin_14.mux_l4_in_0_ mux_top_ipin_14.mux_l3_in_1_/X mux_top_ipin_14.mux_l3_in_0_/X
+ mux_top_ipin_14.mux_l4_in_0_/S VGND VGND VPWR VPWR mux_top_ipin_14.mux_l4_in_0_/X
+ sky130_fd_sc_hd__mux2_1
X_60_ chanx_left_in[3] VGND VGND VPWR VPWR chanx_right_out[3] sky130_fd_sc_hd__buf_2
XFILLER_5_102 VGND VGND VPWR VPWR sky130_fd_sc_hd__fill_2
XFILLER_5_113 VGND VGND VPWR VPWR sky130_fd_sc_hd__fill_2
Xmux_top_ipin_7.mux_l3_in_0_ mux_top_ipin_7.mux_l2_in_1_/X mux_top_ipin_7.mux_l2_in_0_/X
+ mux_top_ipin_7.mux_l3_in_0_/S VGND VGND VPWR VPWR mux_top_ipin_7.mux_l3_in_0_/X
+ sky130_fd_sc_hd__mux2_1
X_43_ chanx_right_in[6] VGND VGND VPWR VPWR chanx_left_out[6] sky130_fd_sc_hd__buf_2
XFILLER_1_182 VGND VGND VPWR VPWR sky130_fd_sc_hd__fill_1
Xmux_top_ipin_7.sky130_fd_sc_hd__buf_4_0_ mux_top_ipin_7.mux_l4_in_0_/X VGND VGND
+ VPWR VPWR bottom_grid_pin_7_ sky130_fd_sc_hd__buf_4
Xmux_top_ipin_14.mux_l3_in_1_ mux_top_ipin_14.mux_l2_in_3_/X mux_top_ipin_14.mux_l2_in_2_/X
+ mux_top_ipin_14.mux_l3_in_1_/S VGND VGND VPWR VPWR mux_top_ipin_14.mux_l3_in_1_/X
+ sky130_fd_sc_hd__mux2_1
XFILLER_18_48 VGND VGND VPWR VPWR sky130_fd_sc_hd__decap_6
Xmux_top_ipin_7.mux_l2_in_1_ chanx_left_in[12] mux_top_ipin_7.mux_l1_in_2_/X mux_top_ipin_7.mux_l2_in_1_/S
+ VGND VGND VPWR VPWR mux_top_ipin_7.mux_l2_in_1_/X sky130_fd_sc_hd__mux2_1
XFILLER_20_27 VGND VGND VPWR VPWR sky130_fd_sc_hd__decap_4
X_26_ VGND VGND VPWR VPWR _26_/HI _26_/LO sky130_fd_sc_hd__conb_1
XFILLER_13_9 VGND VGND VPWR VPWR sky130_fd_sc_hd__fill_2
XPHY_110 VGND VPWR sky130_fd_sc_hd__tapvpwrvgnd_1
Xmux_top_ipin_14.mux_l2_in_2_ chanx_left_in[19] chanx_right_in[11] mux_top_ipin_14.mux_l2_in_3_/S
+ VGND VGND VPWR VPWR mux_top_ipin_14.mux_l2_in_2_/X sky130_fd_sc_hd__mux2_1
XFILLER_22_118 VGND VGND VPWR VPWR sky130_fd_sc_hd__decap_6
XFILLER_22_107 VGND VGND VPWR VPWR sky130_fd_sc_hd__fill_2
Xmux_top_ipin_7.mux_l1_in_2_ chanx_right_in[8] chanx_left_in[8] mux_top_ipin_7.mux_l1_in_2_/S
+ VGND VGND VPWR VPWR mux_top_ipin_7.mux_l1_in_2_/X sky130_fd_sc_hd__mux2_1
XFILLER_15_181 VGND VGND VPWR VPWR sky130_fd_sc_hd__fill_2
XPHY_1 VGND VGND VPWR VPWR sky130_fd_sc_hd__decap_3
Xmux_top_ipin_2.mux_l2_in_0_ chanx_left_in[3] mux_top_ipin_2.mux_l1_in_0_/X mux_top_ipin_2.mux_l2_in_2_/S
+ VGND VGND VPWR VPWR mux_top_ipin_2.mux_l2_in_0_/X sky130_fd_sc_hd__mux2_1
XFILLER_8_111 VGND VGND VPWR VPWR sky130_fd_sc_hd__decap_3
XFILLER_12_17 VGND VGND VPWR VPWR sky130_fd_sc_hd__decap_3
Xlogical_tile_io_mode_io__0.ltile_phy_iopad_0.EMBEDDED_IO_HD_0_.INV_SOC_DIR gfpga_pad_EMBEDDED_IO_HD_SOC_DIR
+ VGND VGND VPWR VPWR logical_tile_io_mode_io__0.ltile_phy_iopad_0.EMBEDDED_IO_HD_0_.INV_SOC_DIR/Y
+ sky130_fd_sc_hd__inv_1
XFILLER_4_180 VGND VGND VPWR VPWR sky130_fd_sc_hd__fill_2
XFILLER_2_117 VGND VGND VPWR VPWR sky130_fd_sc_hd__fill_2
XFILLER_3_8 VGND VGND VPWR VPWR sky130_fd_sc_hd__fill_2
Xmem_top_ipin_1.sky130_fd_sc_hd__dfxtp_1_3_ mem_top_ipin_5.sky130_fd_sc_hd__dfxtp_1_3_/CLK
+ mux_top_ipin_1.mux_l3_in_0_/S VGND VGND VPWR VPWR mux_top_ipin_1.mux_l4_in_0_/S
+ sky130_fd_sc_hd__dfxtp_1
X_42_ chanx_right_in[5] VGND VGND VPWR VPWR chanx_left_out[5] sky130_fd_sc_hd__buf_2
Xmux_top_ipin_14.mux_l3_in_0_ mux_top_ipin_14.mux_l2_in_1_/X mux_top_ipin_14.mux_l2_in_0_/X
+ mux_top_ipin_14.mux_l3_in_1_/S VGND VGND VPWR VPWR mux_top_ipin_14.mux_l3_in_0_/X
+ sky130_fd_sc_hd__mux2_1
Xmem_top_ipin_11.sky130_fd_sc_hd__dfxtp_1_3_ mem_top_ipin_9.sky130_fd_sc_hd__dfxtp_1_1_/CLK
+ mux_top_ipin_11.mux_l3_in_1_/S VGND VGND VPWR VPWR mux_top_ipin_11.mux_l4_in_0_/S
+ sky130_fd_sc_hd__dfxtp_1
Xmux_top_ipin_7.mux_l2_in_0_ mux_top_ipin_7.mux_l1_in_1_/X mux_top_ipin_7.mux_l1_in_0_/X
+ mux_top_ipin_7.mux_l2_in_1_/S VGND VGND VPWR VPWR mux_top_ipin_7.mux_l2_in_0_/X
+ sky130_fd_sc_hd__mux2_1
X_25_ VGND VGND VPWR VPWR _25_/HI _25_/LO sky130_fd_sc_hd__conb_1
Xmux_top_ipin_14.mux_l2_in_1_ chanx_left_in[11] chanx_right_in[3] mux_top_ipin_14.mux_l2_in_3_/S
+ VGND VGND VPWR VPWR mux_top_ipin_14.mux_l2_in_1_/X sky130_fd_sc_hd__mux2_1
XPHY_100 VGND VPWR sky130_fd_sc_hd__tapvpwrvgnd_1
XFILLER_16_149 VGND VGND VPWR VPWR sky130_fd_sc_hd__decap_4
XFILLER_16_138 VGND VGND VPWR VPWR sky130_fd_sc_hd__fill_2
Xmux_top_ipin_14.sky130_fd_sc_hd__buf_4_0_ mux_top_ipin_14.mux_l4_in_0_/X VGND VGND
+ VPWR VPWR bottom_grid_pin_14_ sky130_fd_sc_hd__buf_4
XFILLER_21_71 VGND VGND VPWR VPWR sky130_fd_sc_hd__decap_8
XPHY_111 VGND VPWR sky130_fd_sc_hd__tapvpwrvgnd_1
Xmux_top_ipin_7.mux_l1_in_1_ chanx_right_in[2] chanx_left_in[2] mux_top_ipin_7.mux_l1_in_2_/S
+ VGND VGND VPWR VPWR mux_top_ipin_7.mux_l1_in_1_/X sky130_fd_sc_hd__mux2_1
XPHY_2 VGND VGND VPWR VPWR sky130_fd_sc_hd__decap_3
XFILLER_13_119 VGND VGND VPWR VPWR sky130_fd_sc_hd__decap_3
XFILLER_7_84 VGND VGND VPWR VPWR sky130_fd_sc_hd__fill_2
XFILLER_12_163 VGND VGND VPWR VPWR sky130_fd_sc_hd__decap_8
XFILLER_12_152 VGND VGND VPWR VPWR sky130_fd_sc_hd__fill_1
Xmem_top_ipin_4.sky130_fd_sc_hd__dfxtp_1_3_ mem_top_ipin_8.sky130_fd_sc_hd__dfxtp_1_3_/CLK
+ mux_top_ipin_4.mux_l3_in_1_/S VGND VGND VPWR VPWR mux_top_ipin_4.mux_l4_in_0_/S
+ sky130_fd_sc_hd__dfxtp_1
XFILLER_8_123 VGND VGND VPWR VPWR sky130_fd_sc_hd__fill_2
XFILLER_8_134 VGND VGND VPWR VPWR sky130_fd_sc_hd__fill_2
XFILLER_8_145 VGND VGND VPWR VPWR sky130_fd_sc_hd__fill_2
XFILLER_12_29 VGND VGND VPWR VPWR sky130_fd_sc_hd__fill_2
Xclkbuf_1_0_0_logical_tile_io_mode_io__0.ltile_phy_iopad_0.EMBEDDED_IO_HD_sky130_fd_sc_hd__dfxtp_1_mem.prog_clk
+ clkbuf_0_logical_tile_io_mode_io__0.ltile_phy_iopad_0.EMBEDDED_IO_HD_sky130_fd_sc_hd__dfxtp_1_mem.prog_clk/X
+ VGND VGND VPWR VPWR clkbuf_2_1_0_logical_tile_io_mode_io__0.ltile_phy_iopad_0.EMBEDDED_IO_HD_sky130_fd_sc_hd__dfxtp_1_mem.prog_clk/A
+ sky130_fd_sc_hd__clkbuf_1
XFILLER_5_137 VGND VGND VPWR VPWR sky130_fd_sc_hd__fill_2
Xmem_top_ipin_14.sky130_fd_sc_hd__dfxtp_1_3_ mem_top_ipin_15.sky130_fd_sc_hd__dfxtp_1_2_/CLK
+ mux_top_ipin_14.mux_l3_in_1_/S VGND VGND VPWR VPWR mux_top_ipin_14.mux_l4_in_0_/S
+ sky130_fd_sc_hd__dfxtp_1
Xmem_top_ipin_1.sky130_fd_sc_hd__dfxtp_1_2_ mem_top_ipin_0.sky130_fd_sc_hd__dfxtp_1_0_/CLK
+ mux_top_ipin_1.mux_l2_in_2_/S VGND VGND VPWR VPWR mux_top_ipin_1.mux_l3_in_0_/S
+ sky130_fd_sc_hd__dfxtp_1
Xmux_top_ipin_2.mux_l1_in_0_ chanx_right_in[1] chanx_left_in[1] mux_top_ipin_2.mux_l1_in_0_/S
+ VGND VGND VPWR VPWR mux_top_ipin_2.mux_l1_in_0_/X sky130_fd_sc_hd__mux2_1
XFILLER_1_162 VGND VGND VPWR VPWR sky130_fd_sc_hd__decap_4
X_41_ chanx_right_in[4] VGND VGND VPWR VPWR chanx_left_out[4] sky130_fd_sc_hd__buf_2
XFILLER_18_17 VGND VGND VPWR VPWR sky130_fd_sc_hd__decap_3
Xmem_top_ipin_11.sky130_fd_sc_hd__dfxtp_1_2_ mem_top_ipin_9.sky130_fd_sc_hd__dfxtp_1_1_/CLK
+ mux_top_ipin_11.mux_l2_in_3_/S VGND VGND VPWR VPWR mux_top_ipin_11.mux_l3_in_1_/S
+ sky130_fd_sc_hd__dfxtp_1
XFILLER_1_31 VGND VGND VPWR VPWR sky130_fd_sc_hd__decap_4
XFILLER_1_20 VGND VGND VPWR VPWR sky130_fd_sc_hd__fill_2
X_24_ VGND VGND VPWR VPWR _24_/HI _24_/LO sky130_fd_sc_hd__conb_1
XFILLER_19_147 VGND VGND VPWR VPWR sky130_fd_sc_hd__decap_3
Xmem_top_ipin_7.sky130_fd_sc_hd__dfxtp_1_3_ mem_top_ipin_7.sky130_fd_sc_hd__dfxtp_1_2_/CLK
+ mux_top_ipin_7.mux_l3_in_0_/S VGND VGND VPWR VPWR mux_top_ipin_7.mux_l4_in_0_/S
+ sky130_fd_sc_hd__dfxtp_1
Xmux_top_ipin_14.mux_l2_in_0_ chanx_left_in[3] mux_top_ipin_14.mux_l1_in_0_/X mux_top_ipin_14.mux_l2_in_3_/S
+ VGND VGND VPWR VPWR mux_top_ipin_14.mux_l2_in_0_/X sky130_fd_sc_hd__mux2_1
Xmux_top_ipin_0.sky130_fd_sc_hd__buf_4_0_ mux_top_ipin_0.mux_l4_in_0_/X VGND VGND
+ VPWR VPWR bottom_grid_pin_0_ sky130_fd_sc_hd__buf_4
XPHY_112 VGND VPWR sky130_fd_sc_hd__tapvpwrvgnd_1
Xmux_top_ipin_7.mux_l1_in_0_ chanx_right_in[0] chanx_left_in[0] mux_top_ipin_7.mux_l1_in_2_/S
+ VGND VGND VPWR VPWR mux_top_ipin_7.mux_l1_in_0_/X sky130_fd_sc_hd__mux2_1
XPHY_101 VGND VPWR sky130_fd_sc_hd__tapvpwrvgnd_1
XPHY_3 VGND VGND VPWR VPWR sky130_fd_sc_hd__decap_3
XFILLER_21_175 VGND VGND VPWR VPWR sky130_fd_sc_hd__fill_2
XFILLER_21_120 VGND VGND VPWR VPWR sky130_fd_sc_hd__fill_2
Xmem_top_ipin_4.sky130_fd_sc_hd__dfxtp_1_2_ mem_top_ipin_8.sky130_fd_sc_hd__dfxtp_1_3_/CLK
+ mux_top_ipin_4.mux_l2_in_3_/S VGND VGND VPWR VPWR mux_top_ipin_4.mux_l3_in_1_/S
+ sky130_fd_sc_hd__dfxtp_1
XFILLER_5_127 VGND VGND VPWR VPWR sky130_fd_sc_hd__fill_1
Xmem_top_ipin_14.sky130_fd_sc_hd__dfxtp_1_2_ mem_top_ipin_15.sky130_fd_sc_hd__dfxtp_1_2_/CLK
+ mux_top_ipin_14.mux_l2_in_3_/S VGND VGND VPWR VPWR mux_top_ipin_14.mux_l3_in_1_/S
+ sky130_fd_sc_hd__dfxtp_1
Xmem_top_ipin_1.sky130_fd_sc_hd__dfxtp_1_1_ mem_top_ipin_0.sky130_fd_sc_hd__dfxtp_1_0_/CLK
+ mux_top_ipin_1.mux_l1_in_0_/S VGND VGND VPWR VPWR mux_top_ipin_1.mux_l2_in_2_/S
+ sky130_fd_sc_hd__dfxtp_1
XFILLER_13_62 VGND VGND VPWR VPWR sky130_fd_sc_hd__decap_4
X_40_ chanx_right_in[3] VGND VGND VPWR VPWR chanx_left_out[3] sky130_fd_sc_hd__buf_2
XFILLER_18_29 VGND VGND VPWR VPWR sky130_fd_sc_hd__fill_2
X_23_ VGND VGND VPWR VPWR _23_/HI _23_/LO sky130_fd_sc_hd__conb_1
Xmem_top_ipin_11.sky130_fd_sc_hd__dfxtp_1_1_ mem_top_ipin_13.sky130_fd_sc_hd__dfxtp_1_2_/CLK
+ mux_top_ipin_11.mux_l1_in_1_/S VGND VGND VPWR VPWR mux_top_ipin_11.mux_l2_in_3_/S
+ sky130_fd_sc_hd__dfxtp_1
Xmem_top_ipin_7.sky130_fd_sc_hd__dfxtp_1_2_ mem_top_ipin_7.sky130_fd_sc_hd__dfxtp_1_2_/CLK
+ mux_top_ipin_7.mux_l2_in_1_/S VGND VGND VPWR VPWR mux_top_ipin_7.mux_l3_in_0_/S
+ sky130_fd_sc_hd__dfxtp_1
XFILLER_10_85 VGND VGND VPWR VPWR sky130_fd_sc_hd__fill_2
XFILLER_10_74 VGND VGND VPWR VPWR sky130_fd_sc_hd__fill_2
XPHY_113 VGND VPWR sky130_fd_sc_hd__tapvpwrvgnd_1
XPHY_102 VGND VPWR sky130_fd_sc_hd__tapvpwrvgnd_1
XFILLER_15_184 VGND VGND VPWR VPWR sky130_fd_sc_hd__decap_6
XPHY_4 VGND VGND VPWR VPWR sky130_fd_sc_hd__decap_3
Xmem_top_ipin_4.sky130_fd_sc_hd__dfxtp_1_1_ mem_top_ipin_8.sky130_fd_sc_hd__dfxtp_1_3_/CLK
+ mux_top_ipin_4.mux_l1_in_1_/S VGND VGND VPWR VPWR mux_top_ipin_4.mux_l2_in_3_/S
+ sky130_fd_sc_hd__dfxtp_1
Xmux_top_ipin_14.mux_l1_in_0_ chanx_right_in[1] chanx_left_in[1] mux_top_ipin_14.mux_l1_in_0_/S
+ VGND VGND VPWR VPWR mux_top_ipin_14.mux_l1_in_0_/X sky130_fd_sc_hd__mux2_1
XFILLER_12_187 VGND VGND VPWR VPWR sky130_fd_sc_hd__decap_3
Xmem_top_ipin_14.sky130_fd_sc_hd__dfxtp_1_1_ mem_top_ipin_15.sky130_fd_sc_hd__dfxtp_1_2_/CLK
+ mux_top_ipin_14.mux_l1_in_0_/S VGND VGND VPWR VPWR mux_top_ipin_14.mux_l2_in_3_/S
+ sky130_fd_sc_hd__dfxtp_1
XFILLER_4_150 VGND VGND VPWR VPWR sky130_fd_sc_hd__decap_3
Xmem_top_ipin_1.sky130_fd_sc_hd__dfxtp_1_0_ mem_top_ipin_0.sky130_fd_sc_hd__dfxtp_1_0_/CLK
+ mux_top_ipin_0.mux_l4_in_0_/S VGND VGND VPWR VPWR mux_top_ipin_1.mux_l1_in_0_/S
+ sky130_fd_sc_hd__dfxtp_1
X_22_ VGND VGND VPWR VPWR _22_/HI _22_/LO sky130_fd_sc_hd__conb_1
Xmem_top_ipin_11.sky130_fd_sc_hd__dfxtp_1_0_ mem_top_ipin_13.sky130_fd_sc_hd__dfxtp_1_2_/CLK
+ mux_top_ipin_10.mux_l4_in_0_/S VGND VGND VPWR VPWR mux_top_ipin_11.mux_l1_in_1_/S
+ sky130_fd_sc_hd__dfxtp_1
XFILLER_19_62 VGND VGND VPWR VPWR sky130_fd_sc_hd__fill_1
Xmem_top_ipin_7.sky130_fd_sc_hd__dfxtp_1_1_ mem_top_ipin_7.sky130_fd_sc_hd__dfxtp_1_1_/CLK
+ mux_top_ipin_7.mux_l1_in_2_/S VGND VGND VPWR VPWR mux_top_ipin_7.mux_l2_in_1_/S
+ sky130_fd_sc_hd__dfxtp_1
XFILLER_18_3 VGND VGND VPWR VPWR sky130_fd_sc_hd__decap_4
XPHY_114 VGND VPWR sky130_fd_sc_hd__tapvpwrvgnd_1
Xlogical_tile_io_mode_io__0.ltile_phy_iopad_0.EMBEDDED_IO_HD_0_.IN_PROTECT_GATE gfpga_pad_EMBEDDED_IO_HD_SOC_IN
+ logical_tile_io_mode_io__0.ltile_phy_iopad_0.EMBEDDED_IO_HD_0_.INV_SOC_DIR/Y VGND
+ VGND VPWR VPWR bottom_width_0_height_0__pin_1_lower sky130_fd_sc_hd__ebufn_4
XPHY_103 VGND VPWR sky130_fd_sc_hd__tapvpwrvgnd_1
XFILLER_15_163 VGND VGND VPWR VPWR sky130_fd_sc_hd__fill_2
XPHY_5 VGND VGND VPWR VPWR sky130_fd_sc_hd__decap_3
XFILLER_21_188 VGND VGND VPWR VPWR sky130_fd_sc_hd__fill_2
Xmem_top_ipin_4.sky130_fd_sc_hd__dfxtp_1_0_ mem_top_ipin_8.sky130_fd_sc_hd__dfxtp_1_3_/CLK
+ mux_top_ipin_3.mux_l4_in_0_/S VGND VGND VPWR VPWR mux_top_ipin_4.mux_l1_in_1_/S
+ sky130_fd_sc_hd__dfxtp_1
Xclkbuf_3_5_0_logical_tile_io_mode_io__0.ltile_phy_iopad_0.EMBEDDED_IO_HD_sky130_fd_sc_hd__dfxtp_1_mem.prog_clk
+ clkbuf_3_5_0_logical_tile_io_mode_io__0.ltile_phy_iopad_0.EMBEDDED_IO_HD_sky130_fd_sc_hd__dfxtp_1_mem.prog_clk/A
+ VGND VGND VPWR VPWR mem_top_ipin_13.sky130_fd_sc_hd__dfxtp_1_2_/CLK sky130_fd_sc_hd__clkbuf_1
XFILLER_7_170 VGND VGND VPWR VPWR sky130_fd_sc_hd__decap_6
XFILLER_7_181 VGND VGND VPWR VPWR sky130_fd_sc_hd__fill_2
XFILLER_5_118 VGND VGND VPWR VPWR sky130_fd_sc_hd__decap_4
Xmem_top_ipin_14.sky130_fd_sc_hd__dfxtp_1_0_ mem_top_ipin_15.sky130_fd_sc_hd__dfxtp_1_2_/CLK
+ mux_top_ipin_13.mux_l4_in_0_/S VGND VGND VPWR VPWR mux_top_ipin_14.mux_l1_in_0_/S
+ sky130_fd_sc_hd__dfxtp_1
XFILLER_13_86 VGND VGND VPWR VPWR sky130_fd_sc_hd__fill_2
XFILLER_13_75 VGND VGND VPWR VPWR sky130_fd_sc_hd__fill_2
Xmux_top_ipin_3.mux_l2_in_3_ _32_/HI chanx_right_in[14] mux_top_ipin_3.mux_l2_in_3_/S
+ VGND VGND VPWR VPWR mux_top_ipin_3.mux_l2_in_3_/X sky130_fd_sc_hd__mux2_1
XFILLER_1_176 VGND VGND VPWR VPWR sky130_fd_sc_hd__decap_6
XFILLER_1_154 VGND VGND VPWR VPWR sky130_fd_sc_hd__fill_2
XFILLER_1_143 VGND VGND VPWR VPWR sky130_fd_sc_hd__fill_2
XFILLER_1_132 VGND VGND VPWR VPWR sky130_fd_sc_hd__fill_2
XFILLER_1_121 VGND VGND VPWR VPWR sky130_fd_sc_hd__fill_1
XFILLER_1_9 VGND VGND VPWR VPWR sky130_fd_sc_hd__fill_2
X_21_ VGND VGND VPWR VPWR _21_/HI _21_/LO sky130_fd_sc_hd__conb_1
XFILLER_1_56 VGND VGND VPWR VPWR sky130_fd_sc_hd__decap_4
XFILLER_1_45 VGND VGND VPWR VPWR sky130_fd_sc_hd__fill_2
XFILLER_19_139 VGND VGND VPWR VPWR sky130_fd_sc_hd__decap_8
Xmem_top_ipin_7.sky130_fd_sc_hd__dfxtp_1_0_ mem_top_ipin_7.sky130_fd_sc_hd__dfxtp_1_2_/CLK
+ mux_top_ipin_6.mux_l4_in_0_/S VGND VGND VPWR VPWR mux_top_ipin_7.mux_l1_in_2_/S
+ sky130_fd_sc_hd__dfxtp_1
Xmux_top_ipin_3.mux_l4_in_0_ mux_top_ipin_3.mux_l3_in_1_/X mux_top_ipin_3.mux_l3_in_0_/X
+ mux_top_ipin_3.mux_l4_in_0_/S VGND VGND VPWR VPWR mux_top_ipin_3.mux_l4_in_0_/X
+ sky130_fd_sc_hd__mux2_1
XPHY_115 VGND VPWR sky130_fd_sc_hd__tapvpwrvgnd_1
XPHY_104 VGND VPWR sky130_fd_sc_hd__tapvpwrvgnd_1
XFILLER_21_53 VGND VGND VPWR VPWR sky130_fd_sc_hd__decap_8
XFILLER_15_120 VGND VGND VPWR VPWR sky130_fd_sc_hd__fill_2
XPHY_6 VGND VGND VPWR VPWR sky130_fd_sc_hd__decap_3
XFILLER_21_123 VGND VGND VPWR VPWR sky130_fd_sc_hd__decap_6
XFILLER_21_112 VGND VGND VPWR VPWR sky130_fd_sc_hd__fill_2