* NGSPICE file created from cbx_1__1_.ext - technology: sky130A

* Black-box entry subcircuit for sky130_fd_sc_hd__diode_2 abstract view
.subckt sky130_fd_sc_hd__diode_2 DIODE VGND VNB VPB VPWR
.ends

* Black-box entry subcircuit for sky130_fd_sc_hd__decap_4 abstract view
.subckt sky130_fd_sc_hd__decap_4 VGND VNB VPB VPWR
.ends

* Black-box entry subcircuit for sky130_fd_sc_hd__decap_12 abstract view
.subckt sky130_fd_sc_hd__decap_12 VGND VNB VPB VPWR
.ends

* Black-box entry subcircuit for sky130_fd_sc_hd__fill_1 abstract view
.subckt sky130_fd_sc_hd__fill_1 VGND VNB VPB VPWR
.ends

* Black-box entry subcircuit for sky130_fd_sc_hd__decap_8 abstract view
.subckt sky130_fd_sc_hd__decap_8 VGND VNB VPB VPWR
.ends

* Black-box entry subcircuit for sky130_fd_sc_hd__fill_2 abstract view
.subckt sky130_fd_sc_hd__fill_2 VGND VNB VPB VPWR
.ends

* Black-box entry subcircuit for sky130_fd_sc_hd__mux2_1 abstract view
.subckt sky130_fd_sc_hd__mux2_1 A0 A1 S X VGND VNB VPB VPWR
.ends

* Black-box entry subcircuit for sky130_fd_sc_hd__buf_2 abstract view
.subckt sky130_fd_sc_hd__buf_2 A X VGND VNB VPB VPWR
.ends

* Black-box entry subcircuit for sky130_fd_sc_hd__clkbuf_1 abstract view
.subckt sky130_fd_sc_hd__clkbuf_1 A X VGND VNB VPB VPWR
.ends

* Black-box entry subcircuit for sky130_fd_sc_hd__decap_6 abstract view
.subckt sky130_fd_sc_hd__decap_6 VGND VNB VPB VPWR
.ends

* Black-box entry subcircuit for sky130_fd_sc_hd__decap_3 abstract view
.subckt sky130_fd_sc_hd__decap_3 VGND VNB VPB VPWR
.ends

* Black-box entry subcircuit for sky130_fd_sc_hd__tapvpwrvgnd_1 abstract view
.subckt sky130_fd_sc_hd__tapvpwrvgnd_1 VGND VPWR
.ends

* Black-box entry subcircuit for sky130_fd_sc_hd__buf_4 abstract view
.subckt sky130_fd_sc_hd__buf_4 A X VGND VNB VPB VPWR
.ends

* Black-box entry subcircuit for sky130_fd_sc_hd__conb_1 abstract view
.subckt sky130_fd_sc_hd__conb_1 HI LO VGND VNB VPB VPWR
.ends

* Black-box entry subcircuit for sky130_fd_sc_hd__dfxbp_1 abstract view
.subckt sky130_fd_sc_hd__dfxbp_1 D Q Q_N CLK VGND VNB VPB VPWR
.ends

* Black-box entry subcircuit for sky130_fd_sc_hd__clkbuf_16 abstract view
.subckt sky130_fd_sc_hd__clkbuf_16 A X VGND VNB VPB VPWR
.ends

.subckt cbx_1__1_ SC_IN_BOT SC_IN_TOP SC_OUT_BOT SC_OUT_TOP bottom_grid_pin_0_ bottom_grid_pin_10_
+ bottom_grid_pin_11_ bottom_grid_pin_12_ bottom_grid_pin_13_ bottom_grid_pin_14_
+ bottom_grid_pin_15_ bottom_grid_pin_1_ bottom_grid_pin_2_ bottom_grid_pin_3_ bottom_grid_pin_4_
+ bottom_grid_pin_5_ bottom_grid_pin_6_ bottom_grid_pin_7_ bottom_grid_pin_8_ bottom_grid_pin_9_
+ ccff_head ccff_tail chanx_left_in[0] chanx_left_in[10] chanx_left_in[11] chanx_left_in[12]
+ chanx_left_in[13] chanx_left_in[14] chanx_left_in[15] chanx_left_in[16] chanx_left_in[17]
+ chanx_left_in[18] chanx_left_in[19] chanx_left_in[1] chanx_left_in[2] chanx_left_in[3]
+ chanx_left_in[4] chanx_left_in[5] chanx_left_in[6] chanx_left_in[7] chanx_left_in[8]
+ chanx_left_in[9] chanx_left_out[0] chanx_left_out[10] chanx_left_out[11] chanx_left_out[12]
+ chanx_left_out[13] chanx_left_out[14] chanx_left_out[15] chanx_left_out[16] chanx_left_out[17]
+ chanx_left_out[18] chanx_left_out[19] chanx_left_out[1] chanx_left_out[2] chanx_left_out[3]
+ chanx_left_out[4] chanx_left_out[5] chanx_left_out[6] chanx_left_out[7] chanx_left_out[8]
+ chanx_left_out[9] chanx_right_in[0] chanx_right_in[10] chanx_right_in[11] chanx_right_in[12]
+ chanx_right_in[13] chanx_right_in[14] chanx_right_in[15] chanx_right_in[16] chanx_right_in[17]
+ chanx_right_in[18] chanx_right_in[19] chanx_right_in[1] chanx_right_in[2] chanx_right_in[3]
+ chanx_right_in[4] chanx_right_in[5] chanx_right_in[6] chanx_right_in[7] chanx_right_in[8]
+ chanx_right_in[9] chanx_right_out[0] chanx_right_out[10] chanx_right_out[11] chanx_right_out[12]
+ chanx_right_out[13] chanx_right_out[14] chanx_right_out[15] chanx_right_out[16]
+ chanx_right_out[17] chanx_right_out[18] chanx_right_out[19] chanx_right_out[1] chanx_right_out[2]
+ chanx_right_out[3] chanx_right_out[4] chanx_right_out[5] chanx_right_out[6] chanx_right_out[7]
+ chanx_right_out[8] chanx_right_out[9] prog_clk VPWR VGND
XANTENNA_mux_top_ipin_7.mux_l1_in_0__A1 chanx_left_in[1] VGND VGND VPWR VPWR sky130_fd_sc_hd__diode_2
XANTENNA_mux_top_ipin_0.mux_l2_in_1__S mux_top_ipin_0.mux_l2_in_3_/S VGND VGND VPWR
+ VPWR sky130_fd_sc_hd__diode_2
XFILLER_7_7 VGND VGND VPWR VPWR sky130_fd_sc_hd__decap_4
XFILLER_26_41 VGND VGND VPWR VPWR sky130_fd_sc_hd__decap_12
XFILLER_26_30 VGND VGND VPWR VPWR sky130_fd_sc_hd__fill_1
XFILLER_13_111 VGND VGND VPWR VPWR sky130_fd_sc_hd__decap_8
XANTENNA_mux_top_ipin_12.mux_l2_in_0__A1 mux_top_ipin_12.mux_l1_in_0_/X VGND VGND
+ VPWR VPWR sky130_fd_sc_hd__diode_2
XFILLER_8_181 VGND VGND VPWR VPWR sky130_fd_sc_hd__decap_12
XANTENNA_mem_top_ipin_4.sky130_fd_sc_hd__dfxbp_1_3__D mux_top_ipin_4.mux_l3_in_1_/S
+ VGND VGND VPWR VPWR sky130_fd_sc_hd__diode_2
XANTENNA_mem_top_ipin_14.sky130_fd_sc_hd__dfxbp_1_3__D mux_top_ipin_14.mux_l3_in_0_/S
+ VGND VGND VPWR VPWR sky130_fd_sc_hd__diode_2
XFILLER_35_280 VGND VGND VPWR VPWR sky130_fd_sc_hd__decap_12
XFILLER_27_258 VGND VGND VPWR VPWR sky130_fd_sc_hd__fill_2
XFILLER_27_236 VGND VGND VPWR VPWR sky130_fd_sc_hd__decap_4
XFILLER_10_114 VGND VGND VPWR VPWR sky130_fd_sc_hd__decap_4
XFILLER_12_87 VGND VGND VPWR VPWR sky130_fd_sc_hd__decap_4
XFILLER_33_228 VGND VGND VPWR VPWR sky130_fd_sc_hd__fill_2
XFILLER_26_280 VGND VGND VPWR VPWR sky130_fd_sc_hd__decap_12
Xmux_top_ipin_13.mux_l3_in_0_ mux_top_ipin_13.mux_l2_in_1_/X mux_top_ipin_13.mux_l2_in_0_/X
+ mux_top_ipin_13.mux_l3_in_1_/S mux_top_ipin_13.mux_l3_in_0_/X VGND VGND VPWR VPWR
+ sky130_fd_sc_hd__mux2_1
XANTENNA_mem_top_ipin_3.sky130_fd_sc_hd__dfxbp_1_0__CLK clkbuf_3_0_0_prog_clk/X VGND
+ VGND VPWR VPWR sky130_fd_sc_hd__diode_2
XFILLER_5_184 VGND VGND VPWR VPWR sky130_fd_sc_hd__decap_8
XFILLER_5_195 VGND VGND VPWR VPWR sky130_fd_sc_hd__fill_2
X_66_ chanx_left_in[8] chanx_right_out[8] VGND VGND VPWR VPWR sky130_fd_sc_hd__buf_2
XANTENNA_mux_top_ipin_10.mux_l2_in_2__A1 chanx_right_in[6] VGND VGND VPWR VPWR sky130_fd_sc_hd__diode_2
Xmux_top_ipin_6.mux_l2_in_0_ chanx_left_in[2] mux_top_ipin_6.mux_l1_in_0_/X mux_top_ipin_6.mux_l2_in_2_/S
+ mux_top_ipin_6.mux_l2_in_0_/X VGND VGND VPWR VPWR sky130_fd_sc_hd__mux2_1
XFILLER_23_250 VGND VGND VPWR VPWR sky130_fd_sc_hd__fill_2
XANTENNA_mux_top_ipin_0.sky130_fd_sc_hd__buf_4_0__A mux_top_ipin_0.mux_l4_in_0_/X
+ VGND VGND VPWR VPWR sky130_fd_sc_hd__diode_2
XFILLER_23_53 VGND VGND VPWR VPWR sky130_fd_sc_hd__fill_2
XFILLER_23_42 VGND VGND VPWR VPWR sky130_fd_sc_hd__decap_4
XFILLER_2_154 VGND VGND VPWR VPWR sky130_fd_sc_hd__decap_12
XFILLER_9_77 VGND VGND VPWR VPWR sky130_fd_sc_hd__fill_2
XFILLER_9_99 VGND VGND VPWR VPWR sky130_fd_sc_hd__fill_2
XANTENNA_mux_top_ipin_5.mux_l2_in_2__S mux_top_ipin_5.mux_l2_in_3_/S VGND VGND VPWR
+ VPWR sky130_fd_sc_hd__diode_2
XANTENNA_mux_top_ipin_5.mux_l2_in_1__A1 chanx_right_in[3] VGND VGND VPWR VPWR sky130_fd_sc_hd__diode_2
XANTENNA_clkbuf_2_1_0_prog_clk_A clkbuf_0_prog_clk/X VGND VGND VPWR VPWR sky130_fd_sc_hd__diode_2
X_49_ chanx_right_in[5] chanx_left_out[5] VGND VGND VPWR VPWR sky130_fd_sc_hd__buf_2
Xclkbuf_3_4_0_prog_clk clkbuf_3_5_0_prog_clk/A clkbuf_3_4_0_prog_clk/X VGND VGND VPWR
+ VPWR sky130_fd_sc_hd__clkbuf_1
XANTENNA_mem_top_ipin_6.sky130_fd_sc_hd__dfxbp_1_1__CLK clkbuf_3_2_0_prog_clk/X VGND
+ VGND VPWR VPWR sky130_fd_sc_hd__diode_2
XANTENNA_mux_top_ipin_12.mux_l1_in_0__S mux_top_ipin_12.mux_l1_in_1_/S VGND VGND VPWR
+ VPWR sky130_fd_sc_hd__diode_2
XFILLER_20_297 VGND VGND VPWR VPWR sky130_fd_sc_hd__fill_2
XFILLER_20_231 VGND VGND VPWR VPWR sky130_fd_sc_hd__fill_1
Xmux_top_ipin_13.mux_l2_in_1_ chanx_left_in[9] chanx_right_in[3] mux_top_ipin_13.mux_l2_in_3_/S
+ mux_top_ipin_13.mux_l2_in_1_/X VGND VGND VPWR VPWR sky130_fd_sc_hd__mux2_1
XFILLER_18_97 VGND VGND VPWR VPWR sky130_fd_sc_hd__fill_2
XFILLER_7_279 VGND VGND VPWR VPWR sky130_fd_sc_hd__fill_2
XFILLER_11_297 VGND VGND VPWR VPWR sky130_fd_sc_hd__fill_2
XANTENNA_mux_top_ipin_9.mux_l3_in_0__S mux_top_ipin_9.mux_l3_in_1_/S VGND VGND VPWR
+ VPWR sky130_fd_sc_hd__diode_2
XANTENNA_mux_top_ipin_10.mux_l3_in_1__A1 mux_top_ipin_10.mux_l2_in_2_/X VGND VGND
+ VPWR VPWR sky130_fd_sc_hd__diode_2
XANTENNA_mem_top_ipin_9.sky130_fd_sc_hd__dfxbp_1_2__D mux_top_ipin_9.mux_l2_in_3_/S
+ VGND VGND VPWR VPWR sky130_fd_sc_hd__diode_2
XFILLER_29_139 VGND VGND VPWR VPWR sky130_fd_sc_hd__fill_2
XFILLER_29_128 VGND VGND VPWR VPWR sky130_fd_sc_hd__fill_2
XFILLER_29_117 VGND VGND VPWR VPWR sky130_fd_sc_hd__decap_4
XANTENNA_mux_top_ipin_3.mux_l2_in_3__A1 chanx_right_in[19] VGND VGND VPWR VPWR sky130_fd_sc_hd__diode_2
XFILLER_20_32 VGND VGND VPWR VPWR sky130_fd_sc_hd__decap_6
XFILLER_29_96 VGND VGND VPWR VPWR sky130_fd_sc_hd__decap_3
XANTENNA_mux_top_ipin_2.mux_l1_in_0__A0 chanx_right_in[0] VGND VGND VPWR VPWR sky130_fd_sc_hd__diode_2
XANTENNA_mux_top_ipin_5.mux_l3_in_0__A1 mux_top_ipin_5.mux_l2_in_0_/X VGND VGND VPWR
+ VPWR sky130_fd_sc_hd__diode_2
XANTENNA_mem_top_ipin_9.sky130_fd_sc_hd__dfxbp_1_2__CLK clkbuf_3_1_0_prog_clk/X VGND
+ VGND VPWR VPWR sky130_fd_sc_hd__diode_2
XANTENNA_mux_top_ipin_11.mux_l2_in_0__S mux_top_ipin_11.mux_l2_in_2_/S VGND VGND VPWR
+ VPWR sky130_fd_sc_hd__diode_2
XFILLER_25_175 VGND VGND VPWR VPWR sky130_fd_sc_hd__decap_6
XFILLER_15_21 VGND VGND VPWR VPWR sky130_fd_sc_hd__fill_1
XFILLER_15_32 VGND VGND VPWR VPWR sky130_fd_sc_hd__fill_2
XANTENNA_mux_top_ipin_10.mux_l4_in_0__A1 mux_top_ipin_10.mux_l3_in_0_/X VGND VGND
+ VPWR VPWR sky130_fd_sc_hd__diode_2
XFILLER_0_296 VGND VGND VPWR VPWR sky130_fd_sc_hd__decap_3
XFILLER_31_123 VGND VGND VPWR VPWR sky130_fd_sc_hd__decap_12
XFILLER_31_112 VGND VGND VPWR VPWR sky130_fd_sc_hd__decap_8
XANTENNA_mux_top_ipin_8.mux_l4_in_0__S mux_top_ipin_8.mux_l4_in_0_/S VGND VGND VPWR
+ VPWR sky130_fd_sc_hd__diode_2
XFILLER_16_131 VGND VGND VPWR VPWR sky130_fd_sc_hd__fill_2
XFILLER_16_197 VGND VGND VPWR VPWR sky130_fd_sc_hd__decap_12
XPHY_170 VGND VPWR sky130_fd_sc_hd__tapvpwrvgnd_1
XPHY_192 VGND VPWR sky130_fd_sc_hd__tapvpwrvgnd_1
XPHY_181 VGND VPWR sky130_fd_sc_hd__tapvpwrvgnd_1
XANTENNA_mux_top_ipin_0.mux_l1_in_2__A0 chanx_right_in[4] VGND VGND VPWR VPWR sky130_fd_sc_hd__diode_2
XFILLER_22_145 VGND VGND VPWR VPWR sky130_fd_sc_hd__decap_8
XFILLER_22_101 VGND VGND VPWR VPWR sky130_fd_sc_hd__fill_1
Xmux_top_ipin_1.mux_l1_in_0_ chanx_right_in[1] chanx_left_in[1] mux_top_ipin_1.mux_l1_in_0_/S
+ mux_top_ipin_1.mux_l1_in_0_/X VGND VGND VPWR VPWR sky130_fd_sc_hd__mux2_1
XFILLER_26_97 VGND VGND VPWR VPWR sky130_fd_sc_hd__fill_1
XFILLER_26_86 VGND VGND VPWR VPWR sky130_fd_sc_hd__decap_6
XFILLER_26_53 VGND VGND VPWR VPWR sky130_fd_sc_hd__decap_8
XANTENNA_mux_top_ipin_3.sky130_fd_sc_hd__buf_4_0__A mux_top_ipin_3.mux_l4_in_0_/X
+ VGND VGND VPWR VPWR sky130_fd_sc_hd__diode_2
XFILLER_13_167 VGND VGND VPWR VPWR sky130_fd_sc_hd__decap_6
XFILLER_9_127 VGND VGND VPWR VPWR sky130_fd_sc_hd__decap_12
XFILLER_3_13 VGND VGND VPWR VPWR sky130_fd_sc_hd__fill_2
XFILLER_8_193 VGND VGND VPWR VPWR sky130_fd_sc_hd__fill_2
XFILLER_35_292 VGND VGND VPWR VPWR sky130_fd_sc_hd__decap_6
XANTENNA_mux_top_ipin_10.mux_l3_in_0__S mux_top_ipin_10.mux_l3_in_1_/S VGND VGND VPWR
+ VPWR sky130_fd_sc_hd__diode_2
XFILLER_12_11 VGND VGND VPWR VPWR sky130_fd_sc_hd__decap_4
XANTENNA_mux_top_ipin_0.mux_l2_in_1__A0 chanx_left_in[10] VGND VGND VPWR VPWR sky130_fd_sc_hd__diode_2
XFILLER_18_248 VGND VGND VPWR VPWR sky130_fd_sc_hd__decap_8
XFILLER_26_292 VGND VGND VPWR VPWR sky130_fd_sc_hd__decap_6
XFILLER_24_207 VGND VGND VPWR VPWR sky130_fd_sc_hd__decap_4
X_65_ chanx_left_in[9] chanx_right_out[9] VGND VGND VPWR VPWR sky130_fd_sc_hd__buf_2
XFILLER_32_262 VGND VGND VPWR VPWR sky130_fd_sc_hd__decap_12
XFILLER_2_166 VGND VGND VPWR VPWR sky130_fd_sc_hd__fill_1
XFILLER_0_58 VGND VGND VPWR VPWR sky130_fd_sc_hd__decap_4
XFILLER_14_240 VGND VGND VPWR VPWR sky130_fd_sc_hd__decap_4
XFILLER_9_56 VGND VGND VPWR VPWR sky130_fd_sc_hd__decap_4
X_48_ chanx_right_in[6] chanx_left_out[6] VGND VGND VPWR VPWR sky130_fd_sc_hd__buf_2
XANTENNA_mux_top_ipin_0.mux_l3_in_0__A0 mux_top_ipin_0.mux_l2_in_1_/X VGND VGND VPWR
+ VPWR sky130_fd_sc_hd__diode_2
Xmux_top_ipin_13.mux_l2_in_0_ chanx_left_in[3] mux_top_ipin_13.mux_l1_in_0_/X mux_top_ipin_13.mux_l2_in_3_/S
+ mux_top_ipin_13.mux_l2_in_0_/X VGND VGND VPWR VPWR sky130_fd_sc_hd__mux2_1
XANTENNA_mux_top_ipin_11.mux_l2_in_3__S mux_top_ipin_11.mux_l2_in_2_/S VGND VGND VPWR
+ VPWR sky130_fd_sc_hd__diode_2
XFILLER_18_10 VGND VGND VPWR VPWR sky130_fd_sc_hd__decap_12
XFILLER_18_32 VGND VGND VPWR VPWR sky130_fd_sc_hd__decap_6
XFILLER_7_225 VGND VGND VPWR VPWR sky130_fd_sc_hd__decap_12
XFILLER_11_232 VGND VGND VPWR VPWR sky130_fd_sc_hd__fill_2
XFILLER_11_254 VGND VGND VPWR VPWR sky130_fd_sc_hd__decap_8
XFILLER_15_7 VGND VGND VPWR VPWR sky130_fd_sc_hd__fill_2
XFILLER_6_280 VGND VGND VPWR VPWR sky130_fd_sc_hd__decap_12
Xmux_top_ipin_6.mux_l1_in_0_ chanx_right_in[0] chanx_left_in[0] mux_top_ipin_6.mux_l1_in_0_/S
+ mux_top_ipin_6.mux_l1_in_0_/X VGND VGND VPWR VPWR sky130_fd_sc_hd__mux2_1
XANTENNA_mux_top_ipin_15.mux_l3_in_1__S mux_top_ipin_15.mux_l3_in_1_/S VGND VGND VPWR
+ VPWR sky130_fd_sc_hd__diode_2
XFILLER_29_31 VGND VGND VPWR VPWR sky130_fd_sc_hd__fill_1
XFILLER_28_195 VGND VGND VPWR VPWR sky130_fd_sc_hd__fill_2
XFILLER_28_162 VGND VGND VPWR VPWR sky130_fd_sc_hd__fill_1
XANTENNA_mux_top_ipin_2.mux_l1_in_0__A1 chanx_left_in[0] VGND VGND VPWR VPWR sky130_fd_sc_hd__diode_2
XANTENNA_mux_top_ipin_6.sky130_fd_sc_hd__buf_4_0__A mux_top_ipin_6.mux_l4_in_0_/X
+ VGND VGND VPWR VPWR sky130_fd_sc_hd__diode_2
XFILLER_3_283 VGND VGND VPWR VPWR sky130_fd_sc_hd__fill_2
XANTENNA_mux_top_ipin_14.mux_l2_in_1__A0 chanx_left_in[10] VGND VGND VPWR VPWR sky130_fd_sc_hd__diode_2
XFILLER_19_140 VGND VGND VPWR VPWR sky130_fd_sc_hd__fill_2
XFILLER_19_184 VGND VGND VPWR VPWR sky130_fd_sc_hd__decap_3
XFILLER_34_154 VGND VGND VPWR VPWR sky130_fd_sc_hd__decap_12
XFILLER_25_110 VGND VGND VPWR VPWR sky130_fd_sc_hd__fill_2
XFILLER_15_11 VGND VGND VPWR VPWR sky130_fd_sc_hd__fill_2
XFILLER_15_66 VGND VGND VPWR VPWR sky130_fd_sc_hd__fill_1
XFILLER_15_77 VGND VGND VPWR VPWR sky130_fd_sc_hd__decap_12
XANTENNA_mem_top_ipin_11.sky130_fd_sc_hd__dfxbp_1_2__D mux_top_ipin_11.mux_l2_in_2_/S
+ VGND VGND VPWR VPWR sky130_fd_sc_hd__diode_2
XFILLER_0_275 VGND VGND VPWR VPWR sky130_fd_sc_hd__decap_4
XANTENNA_mem_top_ipin_1.sky130_fd_sc_hd__dfxbp_1_2__D mux_top_ipin_1.mux_l2_in_3_/S
+ VGND VGND VPWR VPWR sky130_fd_sc_hd__diode_2
XFILLER_31_179 VGND VGND VPWR VPWR sky130_fd_sc_hd__fill_2
XFILLER_31_135 VGND VGND VPWR VPWR sky130_fd_sc_hd__decap_8
XPHY_193 VGND VPWR sky130_fd_sc_hd__tapvpwrvgnd_1
XPHY_182 VGND VPWR sky130_fd_sc_hd__tapvpwrvgnd_1
XPHY_171 VGND VPWR sky130_fd_sc_hd__tapvpwrvgnd_1
XANTENNA_mux_top_ipin_9.mux_l2_in_0__A0 chanx_left_in[3] VGND VGND VPWR VPWR sky130_fd_sc_hd__diode_2
XFILLER_16_154 VGND VGND VPWR VPWR sky130_fd_sc_hd__decap_12
XPHY_160 VGND VPWR sky130_fd_sc_hd__tapvpwrvgnd_1
XANTENNA_mux_top_ipin_0.mux_l1_in_2__A1 chanx_left_in[4] VGND VGND VPWR VPWR sky130_fd_sc_hd__diode_2
XANTENNA_mux_top_ipin_12.mux_l2_in_3__A0 _23_/HI VGND VGND VPWR VPWR sky130_fd_sc_hd__diode_2
XANTENNA_mem_top_ipin_10.sky130_fd_sc_hd__dfxbp_1_1__CLK clkbuf_3_5_0_prog_clk/X VGND
+ VGND VPWR VPWR sky130_fd_sc_hd__diode_2
XANTENNA_mux_top_ipin_14.mux_l3_in_0__A0 mux_top_ipin_14.mux_l2_in_1_/X VGND VGND
+ VPWR VPWR sky130_fd_sc_hd__diode_2
XFILLER_9_139 VGND VGND VPWR VPWR sky130_fd_sc_hd__decap_6
XANTENNA_mux_top_ipin_7.mux_l2_in_2__A0 chanx_left_in[17] VGND VGND VPWR VPWR sky130_fd_sc_hd__diode_2
XANTENNA_mux_top_ipin_7.mux_l1_in_0__S mux_top_ipin_7.mux_l1_in_1_/S VGND VGND VPWR
+ VPWR sky130_fd_sc_hd__diode_2
XFILLER_12_190 VGND VGND VPWR VPWR sky130_fd_sc_hd__fill_2
XFILLER_27_216 VGND VGND VPWR VPWR sky130_fd_sc_hd__decap_8
XFILLER_10_138 VGND VGND VPWR VPWR sky130_fd_sc_hd__decap_8
XFILLER_12_45 VGND VGND VPWR VPWR sky130_fd_sc_hd__fill_2
XANTENNA_mux_top_ipin_0.mux_l2_in_1__A1 mux_top_ipin_0.mux_l1_in_2_/X VGND VGND VPWR
+ VPWR sky130_fd_sc_hd__diode_2
XANTENNA_mem_top_ipin_13.sky130_fd_sc_hd__dfxbp_1_2__CLK clkbuf_3_7_0_prog_clk/X VGND
+ VGND VPWR VPWR sky130_fd_sc_hd__diode_2
XFILLER_5_175 VGND VGND VPWR VPWR sky130_fd_sc_hd__fill_2
X_64_ chanx_left_in[10] chanx_right_out[10] VGND VGND VPWR VPWR sky130_fd_sc_hd__buf_2
XFILLER_32_274 VGND VGND VPWR VPWR sky130_fd_sc_hd__fill_1
XFILLER_17_260 VGND VGND VPWR VPWR sky130_fd_sc_hd__fill_2
XFILLER_32_296 VGND VGND VPWR VPWR sky130_fd_sc_hd__decap_3
XFILLER_23_263 VGND VGND VPWR VPWR sky130_fd_sc_hd__decap_6
Xmux_top_ipin_4.sky130_fd_sc_hd__buf_4_0_ mux_top_ipin_4.mux_l4_in_0_/X bottom_grid_pin_4_
+ VGND VGND VPWR VPWR sky130_fd_sc_hd__buf_4
XANTENNA_mem_top_ipin_6.sky130_fd_sc_hd__dfxbp_1_1__D mux_top_ipin_6.mux_l1_in_0_/S
+ VGND VGND VPWR VPWR sky130_fd_sc_hd__diode_2
XFILLER_23_99 VGND VGND VPWR VPWR sky130_fd_sc_hd__fill_2
XFILLER_2_145 VGND VGND VPWR VPWR sky130_fd_sc_hd__fill_1
XFILLER_2_101 VGND VGND VPWR VPWR sky130_fd_sc_hd__fill_1
XANTENNA_mux_top_ipin_7.mux_l3_in_1__A0 mux_top_ipin_7.mux_l2_in_3_/X VGND VGND VPWR
+ VPWR sky130_fd_sc_hd__diode_2
XFILLER_9_35 VGND VGND VPWR VPWR sky130_fd_sc_hd__fill_2
XFILLER_9_68 VGND VGND VPWR VPWR sky130_fd_sc_hd__decap_6
XFILLER_14_285 VGND VGND VPWR VPWR sky130_fd_sc_hd__decap_12
XANTENNA_mux_top_ipin_9.sky130_fd_sc_hd__buf_4_0__A mux_top_ipin_9.mux_l4_in_0_/X
+ VGND VGND VPWR VPWR sky130_fd_sc_hd__diode_2
XANTENNA_mux_top_ipin_6.mux_l2_in_0__S mux_top_ipin_6.mux_l2_in_2_/S VGND VGND VPWR
+ VPWR sky130_fd_sc_hd__diode_2
X_47_ chanx_right_in[7] chanx_left_out[7] VGND VGND VPWR VPWR sky130_fd_sc_hd__buf_2
XANTENNA_mux_top_ipin_0.mux_l3_in_0__A1 mux_top_ipin_0.mux_l2_in_0_/X VGND VGND VPWR
+ VPWR sky130_fd_sc_hd__diode_2
XFILLER_20_255 VGND VGND VPWR VPWR sky130_fd_sc_hd__fill_1
XFILLER_20_266 VGND VGND VPWR VPWR sky130_fd_sc_hd__fill_1
XFILLER_18_22 VGND VGND VPWR VPWR sky130_fd_sc_hd__decap_8
XFILLER_34_32 VGND VGND VPWR VPWR sky130_fd_sc_hd__decap_12
XFILLER_18_66 VGND VGND VPWR VPWR sky130_fd_sc_hd__fill_1
XFILLER_18_77 VGND VGND VPWR VPWR sky130_fd_sc_hd__fill_2
XFILLER_7_237 VGND VGND VPWR VPWR sky130_fd_sc_hd__fill_1
XFILLER_6_292 VGND VGND VPWR VPWR sky130_fd_sc_hd__decap_6
XANTENNA_mem_top_ipin_0.sky130_fd_sc_hd__dfxbp_1_2__CLK clkbuf_3_0_0_prog_clk/X VGND
+ VGND VPWR VPWR sky130_fd_sc_hd__diode_2
XANTENNA_mux_top_ipin_7.mux_l4_in_0__A0 mux_top_ipin_7.mux_l3_in_1_/X VGND VGND VPWR
+ VPWR sky130_fd_sc_hd__diode_2
XANTENNA_mux_top_ipin_1.mux_l2_in_2__S mux_top_ipin_1.mux_l2_in_3_/S VGND VGND VPWR
+ VPWR sky130_fd_sc_hd__diode_2
XFILLER_20_23 VGND VGND VPWR VPWR sky130_fd_sc_hd__decap_8
XFILLER_20_67 VGND VGND VPWR VPWR sky130_fd_sc_hd__fill_1
XFILLER_20_89 VGND VGND VPWR VPWR sky130_fd_sc_hd__decap_3
XFILLER_6_25 VGND VGND VPWR VPWR sky130_fd_sc_hd__decap_6
XFILLER_6_36 VGND VGND VPWR VPWR sky130_fd_sc_hd__fill_2
XFILLER_34_166 VGND VGND VPWR VPWR sky130_fd_sc_hd__decap_12
XFILLER_19_174 VGND VGND VPWR VPWR sky130_fd_sc_hd__fill_2
XANTENNA_mux_top_ipin_14.mux_l2_in_1__A1 chanx_right_in[2] VGND VGND VPWR VPWR sky130_fd_sc_hd__diode_2
XANTENNA_mux_top_ipin_5.mux_l3_in_0__S mux_top_ipin_5.mux_l3_in_1_/S VGND VGND VPWR
+ VPWR sky130_fd_sc_hd__diode_2
Xmux_top_ipin_13.mux_l1_in_0_ chanx_right_in[1] chanx_left_in[1] mux_top_ipin_13.mux_l1_in_0_/S
+ mux_top_ipin_13.mux_l1_in_0_/X VGND VGND VPWR VPWR sky130_fd_sc_hd__mux2_1
XFILLER_25_188 VGND VGND VPWR VPWR sky130_fd_sc_hd__fill_2
XFILLER_25_133 VGND VGND VPWR VPWR sky130_fd_sc_hd__fill_2
XFILLER_15_45 VGND VGND VPWR VPWR sky130_fd_sc_hd__decap_12
XFILLER_15_89 VGND VGND VPWR VPWR sky130_fd_sc_hd__decap_12
XANTENNA_mux_top_ipin_9.mux_l2_in_0__A1 mux_top_ipin_9.mux_l1_in_0_/X VGND VGND VPWR
+ VPWR sky130_fd_sc_hd__diode_2
XFILLER_16_166 VGND VGND VPWR VPWR sky130_fd_sc_hd__decap_4
XANTENNA_mem_top_ipin_3.sky130_fd_sc_hd__dfxbp_1_3__CLK clkbuf_3_2_0_prog_clk/X VGND
+ VGND VPWR VPWR sky130_fd_sc_hd__diode_2
XPHY_194 VGND VPWR sky130_fd_sc_hd__tapvpwrvgnd_1
XPHY_183 VGND VPWR sky130_fd_sc_hd__tapvpwrvgnd_1
XPHY_172 VGND VPWR sky130_fd_sc_hd__tapvpwrvgnd_1
XPHY_150 VGND VPWR sky130_fd_sc_hd__tapvpwrvgnd_1
XPHY_161 VGND VPWR sky130_fd_sc_hd__tapvpwrvgnd_1
XANTENNA_mux_top_ipin_12.mux_l2_in_3__A1 chanx_right_in[16] VGND VGND VPWR VPWR sky130_fd_sc_hd__diode_2
XFILLER_22_158 VGND VGND VPWR VPWR sky130_fd_sc_hd__decap_4
Xclkbuf_2_1_0_prog_clk clkbuf_0_prog_clk/X clkbuf_3_3_0_prog_clk/A VGND VGND VPWR
+ VPWR sky130_fd_sc_hd__clkbuf_1
XFILLER_26_22 VGND VGND VPWR VPWR sky130_fd_sc_hd__fill_2
XFILLER_9_118 VGND VGND VPWR VPWR sky130_fd_sc_hd__fill_1
XANTENNA_mux_top_ipin_11.mux_l1_in_0__A0 chanx_right_in[1] VGND VGND VPWR VPWR sky130_fd_sc_hd__diode_2
XFILLER_13_103 VGND VGND VPWR VPWR sky130_fd_sc_hd__fill_2
XANTENNA_mux_top_ipin_14.mux_l3_in_0__A1 mux_top_ipin_14.mux_l2_in_0_/X VGND VGND
+ VPWR VPWR sky130_fd_sc_hd__diode_2
XFILLER_3_26 VGND VGND VPWR VPWR sky130_fd_sc_hd__fill_2
XANTENNA_mux_top_ipin_7.mux_l2_in_2__A1 chanx_right_in[11] VGND VGND VPWR VPWR sky130_fd_sc_hd__diode_2
XANTENNA_mux_top_ipin_6.mux_l2_in_3__S mux_top_ipin_6.mux_l2_in_2_/S VGND VGND VPWR
+ VPWR sky130_fd_sc_hd__diode_2
XANTENNA_mux_top_ipin_4.mux_l4_in_0__S mux_top_ipin_4.mux_l4_in_0_/S VGND VGND VPWR
+ VPWR sky130_fd_sc_hd__diode_2
XFILLER_35_261 VGND VGND VPWR VPWR sky130_fd_sc_hd__decap_12
XFILLER_10_106 VGND VGND VPWR VPWR sky130_fd_sc_hd__decap_6
XFILLER_5_7 VGND VGND VPWR VPWR sky130_fd_sc_hd__decap_4
XFILLER_26_272 VGND VGND VPWR VPWR sky130_fd_sc_hd__decap_3
XFILLER_5_110 VGND VGND VPWR VPWR sky130_fd_sc_hd__fill_2
X_63_ chanx_left_in[11] chanx_right_out[11] VGND VGND VPWR VPWR sky130_fd_sc_hd__buf_2
XFILLER_32_242 VGND VGND VPWR VPWR sky130_fd_sc_hd__fill_1
XFILLER_17_283 VGND VGND VPWR VPWR sky130_fd_sc_hd__fill_2
XFILLER_23_34 VGND VGND VPWR VPWR sky130_fd_sc_hd__fill_2
XANTENNA_mem_top_ipin_7.sky130_fd_sc_hd__dfxbp_1_0__CLK clkbuf_3_3_0_prog_clk/X VGND
+ VGND VPWR VPWR sky130_fd_sc_hd__diode_2
XANTENNA_mux_top_ipin_4.mux_l1_in_1__A0 chanx_right_in[2] VGND VGND VPWR VPWR sky130_fd_sc_hd__diode_2
XANTENNA_mux_top_ipin_7.mux_l3_in_1__A1 mux_top_ipin_7.mux_l2_in_2_/X VGND VGND VPWR
+ VPWR sky130_fd_sc_hd__diode_2
XFILLER_0_27 VGND VGND VPWR VPWR sky130_fd_sc_hd__decap_4
XFILLER_0_38 VGND VGND VPWR VPWR sky130_fd_sc_hd__fill_2
XFILLER_14_253 VGND VGND VPWR VPWR sky130_fd_sc_hd__decap_4
XFILLER_14_297 VGND VGND VPWR VPWR sky130_fd_sc_hd__fill_2
XFILLER_29_3 VGND VGND VPWR VPWR sky130_fd_sc_hd__decap_3
X_46_ chanx_right_in[8] chanx_left_out[8] VGND VGND VPWR VPWR sky130_fd_sc_hd__buf_2
XANTENNA_mux_top_ipin_12.mux_l2_in_1__S mux_top_ipin_12.mux_l2_in_3_/S VGND VGND VPWR
+ VPWR sky130_fd_sc_hd__diode_2
XFILLER_34_44 VGND VGND VPWR VPWR sky130_fd_sc_hd__decap_12
XFILLER_18_89 VGND VGND VPWR VPWR sky130_fd_sc_hd__decap_3
XFILLER_11_289 VGND VGND VPWR VPWR sky130_fd_sc_hd__decap_8
XANTENNA_mux_top_ipin_7.mux_l4_in_0__A1 mux_top_ipin_7.mux_l3_in_0_/X VGND VGND VPWR
+ VPWR sky130_fd_sc_hd__diode_2
XANTENNA_mux_top_ipin_4.mux_l2_in_0__A0 mux_top_ipin_4.mux_l1_in_1_/X VGND VGND VPWR
+ VPWR sky130_fd_sc_hd__diode_2
X_29_ _29_/HI _29_/LO VGND VGND VPWR VPWR sky130_fd_sc_hd__conb_1
XFILLER_1_92 VGND VGND VPWR VPWR sky130_fd_sc_hd__decap_6
Xmux_top_ipin_11.sky130_fd_sc_hd__buf_4_0_ mux_top_ipin_11.mux_l4_in_0_/X bottom_grid_pin_11_
+ VGND VGND VPWR VPWR sky130_fd_sc_hd__buf_4
Xclkbuf_3_3_0_prog_clk clkbuf_3_3_0_prog_clk/A clkbuf_3_3_0_prog_clk/X VGND VGND VPWR
+ VPWR sky130_fd_sc_hd__clkbuf_1
XANTENNA_mux_top_ipin_10.sky130_fd_sc_hd__buf_4_0__A mux_top_ipin_10.mux_l4_in_0_/X
+ VGND VGND VPWR VPWR sky130_fd_sc_hd__diode_2
XFILLER_20_7 VGND VGND VPWR VPWR sky130_fd_sc_hd__decap_12
XFILLER_34_178 VGND VGND VPWR VPWR sky130_fd_sc_hd__decap_12
XFILLER_19_153 VGND VGND VPWR VPWR sky130_fd_sc_hd__fill_2
XFILLER_19_197 VGND VGND VPWR VPWR sky130_fd_sc_hd__decap_12
XFILLER_25_123 VGND VGND VPWR VPWR sky130_fd_sc_hd__decap_4
XANTENNA_mux_top_ipin_2.mux_l2_in_2__A0 chanx_left_in[14] VGND VGND VPWR VPWR sky130_fd_sc_hd__diode_2
XANTENNA_mux_top_ipin_11.mux_l3_in_1__S mux_top_ipin_11.mux_l3_in_1_/S VGND VGND VPWR
+ VPWR sky130_fd_sc_hd__diode_2
XFILLER_15_24 VGND VGND VPWR VPWR sky130_fd_sc_hd__fill_2
XFILLER_15_57 VGND VGND VPWR VPWR sky130_fd_sc_hd__decap_4
XFILLER_31_78 VGND VGND VPWR VPWR sky130_fd_sc_hd__fill_1
XFILLER_0_266 VGND VGND VPWR VPWR sky130_fd_sc_hd__fill_1
XFILLER_16_123 VGND VGND VPWR VPWR sky130_fd_sc_hd__fill_1
XFILLER_16_145 VGND VGND VPWR VPWR sky130_fd_sc_hd__decap_8
XFILLER_31_148 VGND VGND VPWR VPWR sky130_fd_sc_hd__fill_2
XPHY_195 VGND VPWR sky130_fd_sc_hd__tapvpwrvgnd_1
XPHY_184 VGND VPWR sky130_fd_sc_hd__tapvpwrvgnd_1
XPHY_173 VGND VPWR sky130_fd_sc_hd__tapvpwrvgnd_1
XPHY_140 VGND VPWR sky130_fd_sc_hd__tapvpwrvgnd_1
XPHY_151 VGND VPWR sky130_fd_sc_hd__tapvpwrvgnd_1
XPHY_162 VGND VPWR sky130_fd_sc_hd__tapvpwrvgnd_1
XFILLER_21_192 VGND VGND VPWR VPWR sky130_fd_sc_hd__decap_12
XANTENNA_mux_top_ipin_11.mux_l1_in_0__A1 chanx_left_in[1] VGND VGND VPWR VPWR sky130_fd_sc_hd__diode_2
XFILLER_13_159 VGND VGND VPWR VPWR sky130_fd_sc_hd__fill_2
Xmux_top_ipin_2.mux_l2_in_3_ _27_/HI chanx_right_in[14] mux_top_ipin_2.mux_l2_in_3_/S
+ mux_top_ipin_2.mux_l2_in_3_/X VGND VGND VPWR VPWR sky130_fd_sc_hd__mux2_1
XFILLER_8_163 VGND VGND VPWR VPWR sky130_fd_sc_hd__decap_3
XANTENNA_mem_top_ipin_13.sky130_fd_sc_hd__dfxbp_1_0__D mux_top_ipin_12.mux_l4_in_0_/S
+ VGND VGND VPWR VPWR sky130_fd_sc_hd__diode_2
XANTENNA_mux_top_ipin_2.mux_l3_in_1__A0 mux_top_ipin_2.mux_l2_in_3_/X VGND VGND VPWR
+ VPWR sky130_fd_sc_hd__diode_2
XANTENNA_mem_top_ipin_3.sky130_fd_sc_hd__dfxbp_1_0__D mux_top_ipin_2.mux_l4_in_0_/S
+ VGND VGND VPWR VPWR sky130_fd_sc_hd__diode_2
XFILLER_35_273 VGND VGND VPWR VPWR sky130_fd_sc_hd__decap_6
XFILLER_10_118 VGND VGND VPWR VPWR sky130_fd_sc_hd__fill_1
XFILLER_5_199 VGND VGND VPWR VPWR sky130_fd_sc_hd__fill_2
X_62_ chanx_left_in[12] chanx_right_out[12] VGND VGND VPWR VPWR sky130_fd_sc_hd__buf_2
XFILLER_32_276 VGND VGND VPWR VPWR sky130_fd_sc_hd__decap_12
XANTENNA_mux_top_ipin_3.mux_l1_in_0__S mux_top_ipin_3.mux_l1_in_2_/S VGND VGND VPWR
+ VPWR sky130_fd_sc_hd__diode_2
XFILLER_23_243 VGND VGND VPWR VPWR sky130_fd_sc_hd__fill_1
XFILLER_23_232 VGND VGND VPWR VPWR sky130_fd_sc_hd__fill_1
XFILLER_23_210 VGND VGND VPWR VPWR sky130_fd_sc_hd__fill_2
XFILLER_23_298 VGND VGND VPWR VPWR sky130_fd_sc_hd__fill_1
XFILLER_23_57 VGND VGND VPWR VPWR sky130_fd_sc_hd__fill_2
XFILLER_23_46 VGND VGND VPWR VPWR sky130_fd_sc_hd__fill_1
XFILLER_23_13 VGND VGND VPWR VPWR sky130_fd_sc_hd__fill_2
XFILLER_2_169 VGND VGND VPWR VPWR sky130_fd_sc_hd__fill_2
XANTENNA_mux_top_ipin_4.mux_l1_in_1__A1 chanx_left_in[2] VGND VGND VPWR VPWR sky130_fd_sc_hd__diode_2
XFILLER_9_48 VGND VGND VPWR VPWR sky130_fd_sc_hd__fill_2
XANTENNA_mux_top_ipin_2.mux_l4_in_0__A0 mux_top_ipin_2.mux_l3_in_1_/X VGND VGND VPWR
+ VPWR sky130_fd_sc_hd__diode_2
XANTENNA_mux_top_ipin_13.sky130_fd_sc_hd__buf_4_0__A mux_top_ipin_13.mux_l4_in_0_/X
+ VGND VGND VPWR VPWR sky130_fd_sc_hd__diode_2
X_45_ chanx_right_in[9] chanx_left_out[9] VGND VGND VPWR VPWR sky130_fd_sc_hd__buf_2
XFILLER_9_291 VGND VGND VPWR VPWR sky130_fd_sc_hd__fill_2
Xmux_top_ipin_2.mux_l4_in_0_ mux_top_ipin_2.mux_l3_in_1_/X mux_top_ipin_2.mux_l3_in_0_/X
+ mux_top_ipin_2.mux_l4_in_0_/S mux_top_ipin_2.mux_l4_in_0_/X VGND VGND VPWR VPWR
+ sky130_fd_sc_hd__mux2_1
XFILLER_20_213 VGND VGND VPWR VPWR sky130_fd_sc_hd__fill_1
XFILLER_34_56 VGND VGND VPWR VPWR sky130_fd_sc_hd__decap_12
XFILLER_7_217 VGND VGND VPWR VPWR sky130_fd_sc_hd__fill_2
X_28_ _28_/HI _28_/LO VGND VGND VPWR VPWR sky130_fd_sc_hd__conb_1
XANTENNA_mux_top_ipin_4.mux_l2_in_0__A1 mux_top_ipin_4.mux_l1_in_0_/X VGND VGND VPWR
+ VPWR sky130_fd_sc_hd__diode_2
Xmux_top_ipin_7.mux_l2_in_3_ _16_/HI chanx_right_in[17] mux_top_ipin_7.mux_l2_in_3_/S
+ mux_top_ipin_7.mux_l2_in_3_/X VGND VGND VPWR VPWR sky130_fd_sc_hd__mux2_1
XANTENNA_mux_top_ipin_2.mux_l2_in_0__S mux_top_ipin_2.mux_l2_in_3_/S VGND VGND VPWR
+ VPWR sky130_fd_sc_hd__diode_2
XFILLER_29_34 VGND VGND VPWR VPWR sky130_fd_sc_hd__fill_2
XFILLER_28_154 VGND VGND VPWR VPWR sky130_fd_sc_hd__decap_8
XANTENNA_mux_top_ipin_9.mux_l2_in_3__A0 _18_/HI VGND VGND VPWR VPWR sky130_fd_sc_hd__diode_2
Xmux_top_ipin_2.mux_l3_in_1_ mux_top_ipin_2.mux_l2_in_3_/X mux_top_ipin_2.mux_l2_in_2_/X
+ mux_top_ipin_2.mux_l3_in_1_/S mux_top_ipin_2.mux_l3_in_1_/X VGND VGND VPWR VPWR
+ sky130_fd_sc_hd__mux2_1
XFILLER_13_7 VGND VGND VPWR VPWR sky130_fd_sc_hd__fill_2
XANTENNA_mux_top_ipin_8.mux_l1_in_1__S mux_top_ipin_8.mux_l1_in_2_/S VGND VGND VPWR
+ VPWR sky130_fd_sc_hd__diode_2
XANTENNA_mem_top_ipin_13.sky130_fd_sc_hd__dfxbp_1_3__D mux_top_ipin_13.mux_l3_in_1_/S
+ VGND VGND VPWR VPWR sky130_fd_sc_hd__diode_2
XANTENNA_mem_top_ipin_3.sky130_fd_sc_hd__dfxbp_1_3__D mux_top_ipin_3.mux_l3_in_1_/S
+ VGND VGND VPWR VPWR sky130_fd_sc_hd__diode_2
XFILLER_25_146 VGND VGND VPWR VPWR sky130_fd_sc_hd__fill_2
XANTENNA_mux_top_ipin_2.mux_l2_in_2__A1 chanx_right_in[6] VGND VGND VPWR VPWR sky130_fd_sc_hd__diode_2
XFILLER_15_69 VGND VGND VPWR VPWR sky130_fd_sc_hd__fill_2
XANTENNA_mem_top_ipin_11.sky130_fd_sc_hd__dfxbp_1_0__CLK clkbuf_3_5_0_prog_clk/X VGND
+ VGND VPWR VPWR sky130_fd_sc_hd__diode_2
XPHY_130 VGND VPWR sky130_fd_sc_hd__tapvpwrvgnd_1
XPHY_141 VGND VPWR sky130_fd_sc_hd__tapvpwrvgnd_1
XFILLER_16_135 VGND VGND VPWR VPWR sky130_fd_sc_hd__fill_1
XPHY_152 VGND VPWR sky130_fd_sc_hd__tapvpwrvgnd_1
XPHY_196 VGND VPWR sky130_fd_sc_hd__tapvpwrvgnd_1
XPHY_185 VGND VPWR sky130_fd_sc_hd__tapvpwrvgnd_1
XPHY_174 VGND VPWR sky130_fd_sc_hd__tapvpwrvgnd_1
XPHY_163 VGND VPWR sky130_fd_sc_hd__tapvpwrvgnd_1
XFILLER_15_190 VGND VGND VPWR VPWR sky130_fd_sc_hd__decap_3
XFILLER_7_70 VGND VGND VPWR VPWR sky130_fd_sc_hd__fill_2
XFILLER_7_92 VGND VGND VPWR VPWR sky130_fd_sc_hd__fill_2
XANTENNA_mux_top_ipin_1.mux_l3_in_0__S mux_top_ipin_1.mux_l3_in_1_/S VGND VGND VPWR
+ VPWR sky130_fd_sc_hd__diode_2
XFILLER_21_171 VGND VGND VPWR VPWR sky130_fd_sc_hd__fill_2
Xmux_top_ipin_2.mux_l2_in_2_ chanx_left_in[14] chanx_right_in[6] mux_top_ipin_2.mux_l2_in_3_/S
+ mux_top_ipin_2.mux_l2_in_2_/X VGND VGND VPWR VPWR sky130_fd_sc_hd__mux2_1