* NGSPICE file created from cbx_1__3_.ext - technology: EFS8A

* Black-box entry subcircuit for scs8hd_decap_6 abstract view
.subckt scs8hd_decap_6 vgnd vpwr
.ends

* Black-box entry subcircuit for scs8hd_decap_3 abstract view
.subckt scs8hd_decap_3 vgnd vpwr
.ends

* Black-box entry subcircuit for scs8hd_diode_2 abstract view
.subckt scs8hd_diode_2 DIODE vgnd vpwr
.ends

* Black-box entry subcircuit for scs8hd_decap_4 abstract view
.subckt scs8hd_decap_4 vgnd vpwr
.ends

* Black-box entry subcircuit for scs8hd_lpflow_inputisolatch_1 abstract view
.subckt scs8hd_lpflow_inputisolatch_1 D Q SLEEPB vgnd vpwr
.ends

* Black-box entry subcircuit for scs8hd_fill_2 abstract view
.subckt scs8hd_fill_2 vpwr vgnd
.ends

* Black-box entry subcircuit for scs8hd_fill_1 abstract view
.subckt scs8hd_fill_1 vgnd vpwr
.ends

* Black-box entry subcircuit for scs8hd_decap_12 abstract view
.subckt scs8hd_decap_12 vgnd vpwr
.ends

* Black-box entry subcircuit for scs8hd_nor2_4 abstract view
.subckt scs8hd_nor2_4 A B Y vgnd vpwr
.ends

* Black-box entry subcircuit for scs8hd_conb_1 abstract view
.subckt scs8hd_conb_1 HI LO vgnd vpwr
.ends

* Black-box entry subcircuit for scs8hd_inv_8 abstract view
.subckt scs8hd_inv_8 A Y vgnd vpwr
.ends

* Black-box entry subcircuit for scs8hd_ebufn_2 abstract view
.subckt scs8hd_ebufn_2 A TEB Z vgnd vpwr
.ends

* Black-box entry subcircuit for scs8hd_decap_8 abstract view
.subckt scs8hd_decap_8 vgnd vpwr
.ends

* Black-box entry subcircuit for scs8hd_inv_1 abstract view
.subckt scs8hd_inv_1 A Y vgnd vpwr
.ends

* Black-box entry subcircuit for scs8hd_tapvpwrvgnd_1 abstract view
.subckt scs8hd_tapvpwrvgnd_1 vgnd vpwr
.ends

* Black-box entry subcircuit for scs8hd_or3_4 abstract view
.subckt scs8hd_or3_4 A B C X vgnd vpwr
.ends

* Black-box entry subcircuit for scs8hd_or4_4 abstract view
.subckt scs8hd_or4_4 A B C D X vgnd vpwr
.ends

* Black-box entry subcircuit for scs8hd_or2_4 abstract view
.subckt scs8hd_or2_4 A B X vgnd vpwr
.ends

* Black-box entry subcircuit for scs8hd_buf_2 abstract view
.subckt scs8hd_buf_2 A X vgnd vpwr
.ends

* Black-box entry subcircuit for scs8hd_nor3_4 abstract view
.subckt scs8hd_nor3_4 A B C Y vgnd vpwr
.ends

* Black-box entry subcircuit for scs8hd_nand2_4 abstract view
.subckt scs8hd_nand2_4 A B Y vgnd vpwr
.ends

.subckt cbx_1__3_ address[0] address[1] address[2] address[3] address[4] address[5]
+ address[6] bottom_grid_pin_0_ bottom_grid_pin_4_ bottom_grid_pin_8_ chanx_left_in[0]
+ chanx_left_in[1] chanx_left_in[2] chanx_left_in[3] chanx_left_in[4] chanx_left_in[5]
+ chanx_left_in[6] chanx_left_in[7] chanx_left_in[8] chanx_left_out[0] chanx_left_out[1]
+ chanx_left_out[2] chanx_left_out[3] chanx_left_out[4] chanx_left_out[5] chanx_left_out[6]
+ chanx_left_out[7] chanx_left_out[8] chanx_right_in[0] chanx_right_in[1] chanx_right_in[2]
+ chanx_right_in[3] chanx_right_in[4] chanx_right_in[5] chanx_right_in[6] chanx_right_in[7]
+ chanx_right_in[8] chanx_right_out[0] chanx_right_out[1] chanx_right_out[2] chanx_right_out[3]
+ chanx_right_out[4] chanx_right_out[5] chanx_right_out[6] chanx_right_out[7] chanx_right_out[8]
+ data_in enable top_grid_pin_0_ top_grid_pin_10_ top_grid_pin_12_ top_grid_pin_14_
+ top_grid_pin_2_ top_grid_pin_4_ top_grid_pin_6_ top_grid_pin_8_ vpwr vgnd
XFILLER_26_96 vgnd vpwr scs8hd_decap_6
XFILLER_3_56 vgnd vpwr scs8hd_decap_3
XANTENNA__113__B _114_/B vgnd vpwr scs8hd_diode_2
XFILLER_3_67 vgnd vpwr scs8hd_decap_4
XANTENNA_mux_bottom_ipin_6.mux_l1_in_0_.TGATE_1_.scs8hd_ebufn_2_TEB mem_bottom_ipin_6.LATCH_1_.latch/Q
+ vgnd vpwr scs8hd_diode_2
Xmem_bottom_ipin_2.LATCH_1_.latch data_in mem_bottom_ipin_2.LATCH_1_.latch/Q _129_/Y
+ vgnd vpwr scs8hd_lpflow_inputisolatch_1
XFILLER_8_192 vpwr vgnd scs8hd_fill_2
XFILLER_27_214 vgnd vpwr scs8hd_fill_1
XFILLER_12_10 vpwr vgnd scs8hd_fill_2
XFILLER_12_32 vgnd vpwr scs8hd_decap_3
XFILLER_33_217 vgnd vpwr scs8hd_decap_12
XANTENNA__108__B _099_/D vgnd vpwr scs8hd_diode_2
XFILLER_5_173 vgnd vpwr scs8hd_decap_4
XANTENNA__124__A _124_/A vgnd vpwr scs8hd_diode_2
XFILLER_5_195 vgnd vpwr scs8hd_decap_6
Xmem_bottom_ipin_4.LATCH_4_.latch data_in mem_bottom_ipin_4.LATCH_4_.latch/Q _070_/Y
+ vgnd vpwr scs8hd_lpflow_inputisolatch_1
XANTENNA_mux_bottom_ipin_1.mux_l1_in_0_.TGATE_1_.scs8hd_ebufn_2_TEB mem_bottom_ipin_1.LATCH_1_.latch/Q
+ vgnd vpwr scs8hd_diode_2
X_062_ _056_/B _114_/A _062_/Y vgnd vpwr scs8hd_nor2_4
X_131_ _131_/HI _131_/LO vgnd vpwr scs8hd_conb_1
XFILLER_23_53 vpwr vgnd scs8hd_fill_2
XANTENNA_mux_bottom_ipin_4.mux_l1_in_1_.TGATE_1_.scs8hd_ebufn_2_A mux_bottom_ipin_4.INVTX1_4_.scs8hd_inv_1/Y
+ vgnd vpwr scs8hd_diode_2
XFILLER_2_198 vgnd vpwr scs8hd_decap_12
XFILLER_2_154 vgnd vpwr scs8hd_decap_12
XANTENNA_mem_top_ipin_0.LATCH_3_.latch_D data_in vgnd vpwr scs8hd_diode_2
XANTENNA__110__C address[3] vgnd vpwr scs8hd_diode_2
XANTENNA__119__A _126_/A vgnd vpwr scs8hd_diode_2
XFILLER_9_22 vpwr vgnd scs8hd_fill_2
XFILLER_9_33 vpwr vgnd scs8hd_fill_2
XANTENNA_mem_top_ipin_1.LATCH_1_.latch_D data_in vgnd vpwr scs8hd_diode_2
XFILLER_18_53 vpwr vgnd scs8hd_fill_2
XANTENNA_mux_bottom_ipin_4.mux_l1_in_1_.TGATE_1_.scs8hd_ebufn_2_TEB mem_bottom_ipin_4.LATCH_1_.latch/Q
+ vgnd vpwr scs8hd_diode_2
XFILLER_11_231 vpwr vgnd scs8hd_fill_2
X_114_ _114_/A _114_/B _114_/Y vgnd vpwr scs8hd_nor2_4
X_045_ _045_/A _045_/Y vgnd vpwr scs8hd_inv_8
XANTENNA__121__B _121_/B vgnd vpwr scs8hd_diode_2
Xmux_bottom_ipin_3.mux_l1_in_0_.TGATE_2_.scs8hd_ebufn_2 mux_bottom_ipin_3.INVTX1_2_.scs8hd_inv_1/Y
+ mem_bottom_ipin_3.LATCH_2_.latch/Q mux_bottom_ipin_3.mux_l2_in_0_.TGATE_0_.scs8hd_ebufn_2/A
+ vgnd vpwr scs8hd_ebufn_2
XFILLER_22_7 vgnd vpwr scs8hd_decap_3
XANTENNA_mem_bottom_ipin_5.LATCH_0_.latch_SLEEPB _082_/Y vgnd vpwr scs8hd_diode_2
XANTENNA_mux_top_ipin_2.INVTX1_1_.scs8hd_inv_1_A chanx_right_in[1] vgnd vpwr scs8hd_diode_2
XFILLER_4_227 vgnd vpwr scs8hd_decap_6
XFILLER_4_205 vgnd vpwr scs8hd_decap_8
XFILLER_20_32 vgnd vpwr scs8hd_decap_3
Xmux_top_ipin_0.mux_l1_in_1_.TGATE_0_.scs8hd_ebufn_2 mux_top_ipin_0.INVTX1_3_.scs8hd_inv_1/Y
+ mem_top_ipin_0.LATCH_0_.latch/Q mux_top_ipin_0.mux_l2_in_0_.TGATE_1_.scs8hd_ebufn_2/A
+ vgnd vpwr scs8hd_ebufn_2
XFILLER_29_74 vgnd vpwr scs8hd_fill_1
XANTENNA__116__B _114_/B vgnd vpwr scs8hd_diode_2
XANTENNA_mux_top_ipin_0.mux_l1_in_0_.TGATE_2_.scs8hd_ebufn_2_A mux_top_ipin_0.INVTX1_2_.scs8hd_inv_1/Y
+ vgnd vpwr scs8hd_diode_2
XFILLER_6_45 vpwr vgnd scs8hd_fill_2
XFILLER_6_89 vgnd vpwr scs8hd_decap_3
XFILLER_13_3 vpwr vgnd scs8hd_fill_2
Xmux_bottom_ipin_0.mux_l2_in_0_.TGATE_2_.scs8hd_ebufn_2 _131_/HI mem_bottom_ipin_0.LATCH_5_.latch/Q
+ mux_bottom_ipin_0.tap_buf4_0_.scs8hd_inv_1/A vgnd vpwr scs8hd_ebufn_2
XANTENNA_mux_bottom_ipin_6.INVTX1_0_.scs8hd_inv_1_A chanx_left_in[1] vgnd vpwr scs8hd_diode_2
XFILLER_1_208 vgnd vpwr scs8hd_decap_12
XANTENNA__042__A address[0] vgnd vpwr scs8hd_diode_2
Xmux_bottom_ipin_0.INVTX1_3_.scs8hd_inv_1 chanx_right_in[4] mux_bottom_ipin_0.INVTX1_3_.scs8hd_inv_1/Y
+ vgnd vpwr scs8hd_inv_1
XFILLER_25_197 vpwr vgnd scs8hd_fill_2
XFILLER_15_98 vgnd vpwr scs8hd_decap_6
XFILLER_0_230 vgnd vpwr scs8hd_decap_3
XFILLER_31_123 vgnd vpwr scs8hd_decap_12
XANTENNA__127__A _127_/A vgnd vpwr scs8hd_diode_2
XPHY_170 vgnd vpwr scs8hd_tapvpwrvgnd_1
XFILLER_16_197 vgnd vpwr scs8hd_fill_1
XPHY_192 vgnd vpwr scs8hd_tapvpwrvgnd_1
XPHY_181 vgnd vpwr scs8hd_tapvpwrvgnd_1
Xmux_bottom_ipin_5.tap_buf4_0_.scs8hd_inv_1 mux_bottom_ipin_5.tap_buf4_0_.scs8hd_inv_1/A
+ top_grid_pin_10_ vgnd vpwr scs8hd_inv_1
XANTENNA_mux_bottom_ipin_4.tap_buf4_0_.scs8hd_inv_1_A mux_bottom_ipin_4.tap_buf4_0_.scs8hd_inv_1/A
+ vgnd vpwr scs8hd_diode_2
XANTENNA_mux_bottom_ipin_5.mux_l2_in_0_.TGATE_1_.scs8hd_ebufn_2_A mux_bottom_ipin_5.mux_l1_in_1_.TGATE_0_.scs8hd_ebufn_2/Z
+ vgnd vpwr scs8hd_diode_2
XANTENNA_mux_bottom_ipin_3.mux_l1_in_0_.TGATE_0_.scs8hd_ebufn_2_TEB mem_bottom_ipin_3.LATCH_0_.latch/Q
+ vgnd vpwr scs8hd_diode_2
XFILLER_22_145 vgnd vpwr scs8hd_decap_8
XFILLER_22_167 vgnd vpwr scs8hd_decap_12
XFILLER_26_64 vpwr vgnd scs8hd_fill_2
XFILLER_26_20 vgnd vpwr scs8hd_decap_8
Xmux_bottom_ipin_6.INVTX1_0_.scs8hd_inv_1 chanx_left_in[1] mux_bottom_ipin_6.INVTX1_0_.scs8hd_inv_1/Y
+ vgnd vpwr scs8hd_inv_1
Xmem_bottom_ipin_5.LATCH_0_.latch data_in mem_bottom_ipin_5.LATCH_0_.latch/Q _082_/Y
+ vgnd vpwr scs8hd_lpflow_inputisolatch_1
XANTENNA_mux_top_ipin_0.mux_l2_in_0_.TGATE_0_.scs8hd_ebufn_2_A mux_top_ipin_0.mux_l2_in_0_.TGATE_0_.scs8hd_ebufn_2/A
+ vgnd vpwr scs8hd_diode_2
XFILLER_3_35 vpwr vgnd scs8hd_fill_2
XFILLER_3_24 vgnd vpwr scs8hd_fill_1
XANTENNA_mux_bottom_ipin_1.mux_l1_in_0_.TGATE_1_.scs8hd_ebufn_2_A mux_bottom_ipin_1.INVTX1_1_.scs8hd_inv_1/Y
+ vgnd vpwr scs8hd_diode_2
XFILLER_8_171 vgnd vpwr scs8hd_decap_12
XFILLER_10_104 vpwr vgnd scs8hd_fill_2
XFILLER_12_77 vgnd vpwr scs8hd_decap_12
Xmem_bottom_ipin_7.LATCH_3_.latch data_in mem_bottom_ipin_7.LATCH_3_.latch/Q _094_/Y
+ vgnd vpwr scs8hd_lpflow_inputisolatch_1
XANTENNA_mux_bottom_ipin_6.mux_l1_in_1_.TGATE_0_.scs8hd_ebufn_2_TEB mem_bottom_ipin_6.LATCH_0_.latch/Q
+ vgnd vpwr scs8hd_diode_2
Xmux_bottom_ipin_7.INVTX1_4_.scs8hd_inv_1 chanx_left_in[7] mux_bottom_ipin_7.INVTX1_4_.scs8hd_inv_1/Y
+ vgnd vpwr scs8hd_inv_1
XANTENNA_mem_bottom_ipin_3.LATCH_1_.latch_SLEEPB _064_/Y vgnd vpwr scs8hd_diode_2
XFILLER_33_229 vgnd vpwr scs8hd_decap_4
XANTENNA__108__C _059_/C vgnd vpwr scs8hd_diode_2
XFILLER_5_163 vgnd vpwr scs8hd_fill_1
XFILLER_5_152 vgnd vpwr scs8hd_decap_4
XANTENNA__124__B _124_/B vgnd vpwr scs8hd_diode_2
XFILLER_24_218 vgnd vpwr scs8hd_decap_12
Xmux_top_ipin_0.tap_buf4_0_.scs8hd_inv_1 mux_top_ipin_0.tap_buf4_0_.scs8hd_inv_1/A
+ bottom_grid_pin_0_ vgnd vpwr scs8hd_inv_1
XANTENNA__050__A address[6] vgnd vpwr scs8hd_diode_2
X_130_ _074_/A _127_/B _130_/Y vgnd vpwr scs8hd_nor2_4
XFILLER_23_87 vpwr vgnd scs8hd_fill_2
X_061_ _059_/A address[2] address[0] _114_/A vgnd vpwr scs8hd_or3_4
XFILLER_2_111 vgnd vpwr scs8hd_decap_4
XFILLER_2_166 vgnd vpwr scs8hd_decap_12
XANTENNA__110__D _124_/A vgnd vpwr scs8hd_diode_2
XANTENNA__119__B _121_/B vgnd vpwr scs8hd_diode_2
XFILLER_0_58 vpwr vgnd scs8hd_fill_2
XFILLER_9_89 vpwr vgnd scs8hd_fill_2
XANTENNA_mux_bottom_ipin_1.mux_l1_in_1_.TGATE_0_.scs8hd_ebufn_2_TEB mem_bottom_ipin_1.LATCH_0_.latch/Q
+ vgnd vpwr scs8hd_diode_2
XFILLER_20_232 vgnd vpwr scs8hd_fill_1
XANTENNA__045__A _045_/A vgnd vpwr scs8hd_diode_2
XFILLER_18_10 vpwr vgnd scs8hd_fill_2
XFILLER_11_210 vpwr vgnd scs8hd_fill_2
X_113_ _127_/A _114_/B _113_/Y vgnd vpwr scs8hd_nor2_4
X_044_ _044_/A _044_/Y vgnd vpwr scs8hd_inv_8
XFILLER_29_118 vpwr vgnd scs8hd_fill_2
XFILLER_29_107 vgnd vpwr scs8hd_decap_4
XFILLER_1_90 vpwr vgnd scs8hd_fill_2
XFILLER_20_44 vgnd vpwr scs8hd_decap_8
XFILLER_20_55 vpwr vgnd scs8hd_fill_2
XFILLER_29_86 vpwr vgnd scs8hd_fill_2
XFILLER_29_20 vpwr vgnd scs8hd_fill_2
XFILLER_28_173 vgnd vpwr scs8hd_fill_1
XFILLER_28_151 vpwr vgnd scs8hd_fill_2
XFILLER_6_24 vgnd vpwr scs8hd_fill_1
XANTENNA_mem_bottom_ipin_1.LATCH_2_.latch_SLEEPB _121_/Y vgnd vpwr scs8hd_diode_2
XFILLER_34_154 vgnd vpwr scs8hd_decap_12
XFILLER_25_154 vpwr vgnd scs8hd_fill_2
XFILLER_15_55 vpwr vgnd scs8hd_fill_2
XANTENNA_mem_bottom_ipin_0.LATCH_5_.latch_D data_in vgnd vpwr scs8hd_diode_2
XFILLER_31_87 vpwr vgnd scs8hd_fill_2
XANTENNA_mem_bottom_ipin_1.LATCH_3_.latch_D data_in vgnd vpwr scs8hd_diode_2
XFILLER_16_121 vpwr vgnd scs8hd_fill_2
XPHY_193 vgnd vpwr scs8hd_tapvpwrvgnd_1
XFILLER_31_135 vgnd vpwr scs8hd_decap_12
XPHY_182 vgnd vpwr scs8hd_tapvpwrvgnd_1
XANTENNA__127__B _127_/B vgnd vpwr scs8hd_diode_2
XPHY_171 vgnd vpwr scs8hd_tapvpwrvgnd_1
XPHY_160 vgnd vpwr scs8hd_tapvpwrvgnd_1
XFILLER_16_176 vpwr vgnd scs8hd_fill_2
XANTENNA_mem_bottom_ipin_2.LATCH_1_.latch_D data_in vgnd vpwr scs8hd_diode_2
XANTENNA__143__A chanx_right_in[7] vgnd vpwr scs8hd_diode_2
XFILLER_22_179 vgnd vpwr scs8hd_decap_3
XANTENNA__053__A address[1] vgnd vpwr scs8hd_diode_2
Xmem_top_ipin_0.LATCH_4_.latch data_in mem_top_ipin_0.LATCH_4_.latch/Q _101_/Y vgnd
+ vpwr scs8hd_lpflow_inputisolatch_1
XFILLER_26_43 vgnd vpwr scs8hd_decap_6
XFILLER_9_106 vpwr vgnd scs8hd_fill_2
XFILLER_13_179 vpwr vgnd scs8hd_fill_2
XFILLER_3_14 vpwr vgnd scs8hd_fill_2
XANTENNA__048__A address[2] vgnd vpwr scs8hd_diode_2
XFILLER_12_23 vgnd vpwr scs8hd_decap_8
XFILLER_12_89 vgnd vpwr scs8hd_fill_1
Xmux_bottom_ipin_2.mux_l1_in_0_.TGATE_2_.scs8hd_ebufn_2 mux_bottom_ipin_2.INVTX1_2_.scs8hd_inv_1/Y
+ mem_bottom_ipin_2.LATCH_2_.latch/Q mux_bottom_ipin_2.mux_l2_in_0_.TGATE_0_.scs8hd_ebufn_2/A
+ vgnd vpwr scs8hd_ebufn_2
XANTENNA_mux_top_ipin_1.mux_l2_in_0_.TGATE_1_.scs8hd_ebufn_2_TEB _043_/Y vgnd vpwr
+ scs8hd_diode_2
Xmux_bottom_ipin_4.INVTX1_0_.scs8hd_inv_1 chanx_left_in[3] mux_bottom_ipin_4.INVTX1_0_.scs8hd_inv_1/Y
+ vgnd vpwr scs8hd_inv_1
XANTENNA_mem_bottom_ipin_5.LATCH_5_.latch_D data_in vgnd vpwr scs8hd_diode_2
XFILLER_23_230 vgnd vpwr scs8hd_decap_3
XFILLER_23_66 vgnd vpwr scs8hd_fill_1
XFILLER_3_3 vpwr vgnd scs8hd_fill_2
XANTENNA_mem_bottom_ipin_6.LATCH_3_.latch_D data_in vgnd vpwr scs8hd_diode_2
X_060_ _056_/B _127_/A _060_/Y vgnd vpwr scs8hd_nor2_4
XFILLER_2_178 vgnd vpwr scs8hd_decap_6
XFILLER_0_15 vgnd vpwr scs8hd_decap_12
XANTENNA_mux_bottom_ipin_5.mux_l1_in_1_.TGATE_1_.scs8hd_ebufn_2_A mux_bottom_ipin_5.INVTX1_4_.scs8hd_inv_1/Y
+ vgnd vpwr scs8hd_diode_2
XANTENNA_mem_bottom_ipin_7.LATCH_1_.latch_D data_in vgnd vpwr scs8hd_diode_2
XFILLER_14_230 vgnd vpwr scs8hd_decap_3
XFILLER_9_57 vgnd vpwr scs8hd_fill_1
XFILLER_9_79 vgnd vpwr scs8hd_decap_4
XANTENNA__151__A chanx_left_in[8] vgnd vpwr scs8hd_diode_2
Xmux_bottom_ipin_5.INVTX1_4_.scs8hd_inv_1 chanx_left_in[5] mux_bottom_ipin_5.INVTX1_4_.scs8hd_inv_1/Y
+ vgnd vpwr scs8hd_inv_1
XANTENNA__061__A _059_/A vgnd vpwr scs8hd_diode_2
Xmem_bottom_ipin_0.LATCH_4_.latch data_in mem_bottom_ipin_0.LATCH_4_.latch/Q _112_/Y
+ vgnd vpwr scs8hd_lpflow_inputisolatch_1
XANTENNA_mux_top_ipin_0.mux_l1_in_1_.TGATE_0_.scs8hd_ebufn_2_A mux_top_ipin_0.INVTX1_3_.scs8hd_inv_1/Y
+ vgnd vpwr scs8hd_diode_2
XFILLER_34_32 vgnd vpwr scs8hd_decap_12
X_043_ _043_/A _043_/Y vgnd vpwr scs8hd_inv_8
X_112_ _126_/A _114_/B _112_/Y vgnd vpwr scs8hd_nor2_4
XANTENNA__146__A chanx_right_in[4] vgnd vpwr scs8hd_diode_2
XANTENNA__056__A _125_/A vgnd vpwr scs8hd_diode_2
XFILLER_28_185 vpwr vgnd scs8hd_fill_2
XFILLER_34_166 vgnd vpwr scs8hd_decap_12
Xmem_top_ipin_1.LATCH_0_.latch data_in _044_/A _107_/Y vgnd vpwr scs8hd_lpflow_inputisolatch_1
XFILLER_19_130 vpwr vgnd scs8hd_fill_2
XANTENNA_mux_bottom_ipin_1.INVTX1_3_.scs8hd_inv_1_A chanx_right_in[1] vgnd vpwr scs8hd_diode_2
XFILLER_15_45 vpwr vgnd scs8hd_fill_2
XFILLER_15_78 vgnd vpwr scs8hd_decap_8
XANTENNA_mux_bottom_ipin_5.INVTX1_4_.scs8hd_inv_1_A chanx_left_in[5] vgnd vpwr scs8hd_diode_2
XFILLER_16_100 vgnd vpwr scs8hd_fill_1
XFILLER_16_133 vgnd vpwr scs8hd_decap_3
XPHY_194 vgnd vpwr scs8hd_tapvpwrvgnd_1
XFILLER_31_147 vgnd vpwr scs8hd_decap_12
XPHY_183 vgnd vpwr scs8hd_tapvpwrvgnd_1
XPHY_172 vgnd vpwr scs8hd_tapvpwrvgnd_1
XPHY_161 vgnd vpwr scs8hd_tapvpwrvgnd_1
XPHY_150 vgnd vpwr scs8hd_tapvpwrvgnd_1
XANTENNA__053__B _053_/B vgnd vpwr scs8hd_diode_2
XANTENNA_mux_bottom_ipin_6.mux_l2_in_0_.TGATE_1_.scs8hd_ebufn_2_A mux_bottom_ipin_6.mux_l2_in_0_.TGATE_1_.scs8hd_ebufn_2/A
+ vgnd vpwr scs8hd_diode_2
XFILLER_9_118 vpwr vgnd scs8hd_fill_2
XFILLER_9_129 vpwr vgnd scs8hd_fill_2
XFILLER_13_114 vgnd vpwr scs8hd_fill_1
XFILLER_13_158 vpwr vgnd scs8hd_fill_2
XFILLER_21_191 vpwr vgnd scs8hd_fill_2
XFILLER_3_48 vpwr vgnd scs8hd_fill_2
XANTENNA_mux_top_ipin_1.mux_l2_in_0_.TGATE_0_.scs8hd_ebufn_2_A mux_top_ipin_1.mux_l2_in_0_.TGATE_0_.scs8hd_ebufn_2/A
+ vgnd vpwr scs8hd_diode_2
XANTENNA_mux_bottom_ipin_4.mux_l2_in_0_.TGATE_2_.scs8hd_ebufn_2_TEB mem_bottom_ipin_4.LATCH_5_.latch/Q
+ vgnd vpwr scs8hd_diode_2
XANTENNA__154__A chanx_left_in[5] vgnd vpwr scs8hd_diode_2
XFILLER_8_140 vpwr vgnd scs8hd_fill_2
XANTENNA_mux_bottom_ipin_2.mux_l1_in_0_.TGATE_1_.scs8hd_ebufn_2_A mux_bottom_ipin_2.INVTX1_1_.scs8hd_inv_1/Y
+ vgnd vpwr scs8hd_diode_2
XANTENNA_mem_bottom_ipin_6.LATCH_2_.latch_SLEEPB _088_/Y vgnd vpwr scs8hd_diode_2
XFILLER_27_217 vgnd vpwr scs8hd_decap_12
XFILLER_10_139 vgnd vpwr scs8hd_decap_3
XFILLER_12_46 vgnd vpwr scs8hd_decap_12
XANTENNA__064__A _056_/B vgnd vpwr scs8hd_diode_2
XFILLER_18_206 vpwr vgnd scs8hd_fill_2
Xmem_bottom_ipin_1.LATCH_0_.latch data_in mem_bottom_ipin_1.LATCH_0_.latch/Q _123_/Y
+ vgnd vpwr scs8hd_lpflow_inputisolatch_1
XANTENNA__149__A chanx_right_in[1] vgnd vpwr scs8hd_diode_2
XANTENNA__059__A _059_/A vgnd vpwr scs8hd_diode_2
XFILLER_15_209 vgnd vpwr scs8hd_decap_8
XFILLER_23_78 vpwr vgnd scs8hd_fill_2
XFILLER_23_23 vpwr vgnd scs8hd_fill_2
XFILLER_2_135 vgnd vpwr scs8hd_decap_12
XFILLER_2_124 vpwr vgnd scs8hd_fill_2
XFILLER_0_27 vgnd vpwr scs8hd_decap_4
Xmem_bottom_ipin_3.LATCH_3_.latch data_in mem_bottom_ipin_3.LATCH_3_.latch/Q _060_/Y
+ vgnd vpwr scs8hd_lpflow_inputisolatch_1
XFILLER_29_3 vpwr vgnd scs8hd_fill_2
Xmux_top_ipin_2.mux_l2_in_0_.TGATE_0_.scs8hd_ebufn_2 mux_top_ipin_2.mux_l1_in_0_.TGATE_1_.scs8hd_ebufn_2/Z
+ _045_/A mux_top_ipin_2.tap_buf4_0_.scs8hd_inv_1/A vgnd vpwr scs8hd_ebufn_2
Xmux_bottom_ipin_2.INVTX1_0_.scs8hd_inv_1 chanx_left_in[1] mux_bottom_ipin_2.INVTX1_0_.scs8hd_inv_1/Y
+ vgnd vpwr scs8hd_inv_1
XANTENNA__061__B address[2] vgnd vpwr scs8hd_diode_2
XFILLER_18_23 vgnd vpwr scs8hd_decap_6
XFILLER_34_44 vgnd vpwr scs8hd_decap_12
XFILLER_11_223 vpwr vgnd scs8hd_fill_2
X_042_ address[0] _059_/C vgnd vpwr scs8hd_inv_8
Xmux_top_ipin_1.INVTX1_0_.scs8hd_inv_1 chanx_left_in[0] mux_top_ipin_1.INVTX1_0_.scs8hd_inv_1/Y
+ vgnd vpwr scs8hd_inv_1
X_111_ _125_/A _114_/B _111_/Y vgnd vpwr scs8hd_nor2_4
XANTENNA_mem_bottom_ipin_4.LATCH_3_.latch_SLEEPB _071_/Y vgnd vpwr scs8hd_diode_2
Xmux_bottom_ipin_3.INVTX1_4_.scs8hd_inv_1 chanx_left_in[7] mux_bottom_ipin_3.INVTX1_4_.scs8hd_inv_1/Y
+ vgnd vpwr scs8hd_inv_1
XANTENNA__056__B _056_/B vgnd vpwr scs8hd_diode_2
XANTENNA__072__A _114_/A vgnd vpwr scs8hd_diode_2
XFILLER_29_33 vpwr vgnd scs8hd_fill_2
XFILLER_29_66 vpwr vgnd scs8hd_fill_2
XFILLER_28_120 vgnd vpwr scs8hd_decap_3
XFILLER_3_230 vgnd vpwr scs8hd_decap_3
XANTENNA_mux_bottom_ipin_6.mux_l2_in_0_.TGATE_1_.scs8hd_ebufn_2_TEB mem_bottom_ipin_6.LATCH_4_.latch/Q
+ vgnd vpwr scs8hd_diode_2
XANTENNA_mux_bottom_ipin_3.INVTX1_1_.scs8hd_inv_1_A chanx_right_in[2] vgnd vpwr scs8hd_diode_2
XFILLER_34_178 vgnd vpwr scs8hd_decap_12
XANTENNA__157__A chanx_left_in[2] vgnd vpwr scs8hd_diode_2
XFILLER_19_175 vpwr vgnd scs8hd_fill_2
XFILLER_19_197 vgnd vpwr scs8hd_decap_3
Xmux_bottom_ipin_1.mux_l1_in_0_.TGATE_2_.scs8hd_ebufn_2 mux_bottom_ipin_1.INVTX1_2_.scs8hd_inv_1/Y
+ mem_bottom_ipin_1.LATCH_2_.latch/Q mux_bottom_ipin_1.mux_l2_in_0_.TGATE_0_.scs8hd_ebufn_2/A
+ vgnd vpwr scs8hd_ebufn_2
XANTENNA_mux_bottom_ipin_7.INVTX1_2_.scs8hd_inv_1_A chanx_left_in[6] vgnd vpwr scs8hd_diode_2
XFILLER_25_178 vgnd vpwr scs8hd_decap_3
XFILLER_25_134 vpwr vgnd scs8hd_fill_2
XANTENNA__067__A address[5] vgnd vpwr scs8hd_diode_2
XFILLER_0_211 vgnd vpwr scs8hd_decap_6
XFILLER_31_104 vgnd vpwr scs8hd_decap_12
XFILLER_16_145 vgnd vpwr scs8hd_decap_4
XFILLER_16_189 vgnd vpwr scs8hd_decap_8
XPHY_195 vgnd vpwr scs8hd_tapvpwrvgnd_1
XFILLER_31_159 vgnd vpwr scs8hd_decap_12
XPHY_184 vgnd vpwr scs8hd_tapvpwrvgnd_1
XPHY_173 vgnd vpwr scs8hd_tapvpwrvgnd_1
XPHY_162 vgnd vpwr scs8hd_tapvpwrvgnd_1
XPHY_140 vgnd vpwr scs8hd_tapvpwrvgnd_1
XPHY_151 vgnd vpwr scs8hd_tapvpwrvgnd_1
XANTENNA_mux_bottom_ipin_1.mux_l2_in_0_.TGATE_1_.scs8hd_ebufn_2_TEB mem_bottom_ipin_1.LATCH_4_.latch/Q
+ vgnd vpwr scs8hd_diode_2
XANTENNA__053__C _059_/C vgnd vpwr scs8hd_diode_2
XFILLER_3_27 vpwr vgnd scs8hd_fill_2
XFILLER_8_152 vgnd vpwr scs8hd_fill_1
XFILLER_8_196 vgnd vpwr scs8hd_decap_4
XFILLER_12_181 vgnd vpwr scs8hd_decap_4
XFILLER_27_229 vgnd vpwr scs8hd_decap_4
XANTENNA__064__B _073_/A vgnd vpwr scs8hd_diode_2
XANTENNA__080__A _114_/A vgnd vpwr scs8hd_diode_2
XFILLER_12_58 vgnd vpwr scs8hd_decap_3
XFILLER_18_218 vpwr vgnd scs8hd_fill_2
XANTENNA_mem_bottom_ipin_2.LATCH_4_.latch_SLEEPB _126_/Y vgnd vpwr scs8hd_diode_2
XFILLER_5_111 vpwr vgnd scs8hd_fill_2
XFILLER_5_100 vpwr vgnd scs8hd_fill_2
Xmem_bottom_ipin_6.LATCH_2_.latch data_in mem_bottom_ipin_6.LATCH_2_.latch/Q _088_/Y
+ vgnd vpwr scs8hd_lpflow_inputisolatch_1
XANTENNA__059__B address[2] vgnd vpwr scs8hd_diode_2
XANTENNA__075__A _091_/A vgnd vpwr scs8hd_diode_2
XFILLER_23_57 vpwr vgnd scs8hd_fill_2
XFILLER_2_147 vgnd vpwr scs8hd_decap_3
XFILLER_9_37 vgnd vpwr scs8hd_decap_4
XANTENNA_mux_bottom_ipin_6.mux_l1_in_1_.TGATE_1_.scs8hd_ebufn_2_A mux_bottom_ipin_6.INVTX1_4_.scs8hd_inv_1/Y
+ vgnd vpwr scs8hd_diode_2
XFILLER_20_224 vgnd vpwr scs8hd_decap_8
XANTENNA__061__C address[0] vgnd vpwr scs8hd_diode_2
XANTENNA_mux_top_ipin_1.INVTX1_0_.scs8hd_inv_1_A chanx_left_in[0] vgnd vpwr scs8hd_diode_2
XFILLER_18_46 vgnd vpwr scs8hd_decap_4
XFILLER_18_57 vpwr vgnd scs8hd_fill_2
XFILLER_34_56 vgnd vpwr scs8hd_decap_12
X_110_ _091_/A address[4] address[3] _124_/A _114_/B vgnd vpwr scs8hd_or4_4
XANTENNA_mux_bottom_ipin_3.mux_l2_in_0_.TGATE_0_.scs8hd_ebufn_2_TEB mem_bottom_ipin_3.LATCH_3_.latch/Q
+ vgnd vpwr scs8hd_diode_2
XANTENNA_mux_bottom_ipin_0.mux_l2_in_0_.TGATE_2_.scs8hd_ebufn_2_A _131_/HI vgnd vpwr
+ scs8hd_diode_2
XANTENNA__072__B _073_/B vgnd vpwr scs8hd_diode_2
XANTENNA_mem_top_ipin_1.LATCH_1_.latch_SLEEPB _106_/Y vgnd vpwr scs8hd_diode_2
XFILLER_20_14 vpwr vgnd scs8hd_fill_2
XFILLER_29_12 vgnd vpwr scs8hd_decap_8
XFILLER_28_165 vgnd vpwr scs8hd_decap_8
XFILLER_28_143 vgnd vpwr scs8hd_decap_8
XFILLER_28_132 vgnd vpwr scs8hd_decap_8
XFILLER_6_16 vpwr vgnd scs8hd_fill_2
Xmux_bottom_ipin_0.INVTX1_0_.scs8hd_inv_1 chanx_left_in[0] mux_bottom_ipin_0.INVTX1_0_.scs8hd_inv_1/Y
+ vgnd vpwr scs8hd_inv_1
XFILLER_6_27 vgnd vpwr scs8hd_decap_4
XFILLER_6_49 vpwr vgnd scs8hd_fill_2
XFILLER_10_80 vgnd vpwr scs8hd_decap_8
XFILLER_19_154 vpwr vgnd scs8hd_fill_2
XANTENNA_mem_bottom_ipin_0.LATCH_5_.latch_SLEEPB _111_/Y vgnd vpwr scs8hd_diode_2
XFILLER_25_146 vpwr vgnd scs8hd_fill_2
XFILLER_25_168 vgnd vpwr scs8hd_decap_4
XANTENNA__083__A _091_/A vgnd vpwr scs8hd_diode_2
XANTENNA__067__B _098_/B vgnd vpwr scs8hd_diode_2
XFILLER_31_116 vgnd vpwr scs8hd_decap_6
Xmux_bottom_ipin_1.INVTX1_4_.scs8hd_inv_1 chanx_left_in[5] mux_bottom_ipin_1.INVTX1_4_.scs8hd_inv_1/Y
+ vgnd vpwr scs8hd_inv_1
XPHY_130 vgnd vpwr scs8hd_tapvpwrvgnd_1
XFILLER_16_157 vgnd vpwr scs8hd_decap_8
XFILLER_16_168 vgnd vpwr scs8hd_decap_8
XPHY_141 vgnd vpwr scs8hd_tapvpwrvgnd_1
XPHY_152 vgnd vpwr scs8hd_tapvpwrvgnd_1
XPHY_196 vgnd vpwr scs8hd_tapvpwrvgnd_1
XPHY_185 vgnd vpwr scs8hd_tapvpwrvgnd_1
XPHY_174 vgnd vpwr scs8hd_tapvpwrvgnd_1
XPHY_163 vgnd vpwr scs8hd_tapvpwrvgnd_1
XANTENNA_mux_top_ipin_0.tap_buf4_0_.scs8hd_inv_1_A mux_top_ipin_0.tap_buf4_0_.scs8hd_inv_1/A
+ vgnd vpwr scs8hd_diode_2
Xmux_top_ipin_0.INVTX1_4_.scs8hd_inv_1 chanx_left_in[8] mux_top_ipin_0.INVTX1_4_.scs8hd_inv_1/Y
+ vgnd vpwr scs8hd_inv_1
XANTENNA_mux_bottom_ipin_7.mux_l2_in_0_.TGATE_1_.scs8hd_ebufn_2_A mux_bottom_ipin_7.mux_l1_in_1_.TGATE_2_.scs8hd_ebufn_2/Z
+ vgnd vpwr scs8hd_diode_2
XFILLER_26_68 vgnd vpwr scs8hd_decap_4
XFILLER_13_138 vgnd vpwr scs8hd_decap_4
XANTENNA__078__A _126_/A vgnd vpwr scs8hd_diode_2
XANTENNA_mux_top_ipin_2.mux_l2_in_0_.TGATE_0_.scs8hd_ebufn_2_A mux_top_ipin_2.mux_l1_in_0_.TGATE_1_.scs8hd_ebufn_2/Z
+ vgnd vpwr scs8hd_diode_2
Xmux_top_ipin_1.mux_l2_in_0_.TGATE_0_.scs8hd_ebufn_2 mux_top_ipin_1.mux_l2_in_0_.TGATE_0_.scs8hd_ebufn_2/A
+ _043_/A mux_top_ipin_1.tap_buf4_0_.scs8hd_inv_1/A vgnd vpwr scs8hd_ebufn_2
XFILLER_12_160 vpwr vgnd scs8hd_fill_2
Xmux_bottom_ipin_7.INVTX1_1_.scs8hd_inv_1 chanx_right_in[2] mux_bottom_ipin_7.INVTX1_1_.scs8hd_inv_1/Y
+ vgnd vpwr scs8hd_inv_1
XFILLER_35_230 vgnd vpwr scs8hd_decap_3
XANTENNA_mux_bottom_ipin_3.mux_l1_in_0_.TGATE_1_.scs8hd_ebufn_2_A mux_bottom_ipin_3.INVTX1_1_.scs8hd_inv_1/Y
+ vgnd vpwr scs8hd_diode_2
XFILLER_10_119 vpwr vgnd scs8hd_fill_2
XANTENNA__080__B _082_/B vgnd vpwr scs8hd_diode_2
XFILLER_5_156 vgnd vpwr scs8hd_fill_1
XFILLER_5_123 vgnd vpwr scs8hd_fill_1
XANTENNA__059__C _059_/C vgnd vpwr scs8hd_diode_2
XFILLER_23_222 vgnd vpwr scs8hd_decap_8
XFILLER_23_211 vgnd vpwr scs8hd_decap_4
XANTENNA__075__B address[4] vgnd vpwr scs8hd_diode_2
XFILLER_23_36 vgnd vpwr scs8hd_decap_3
XANTENNA__091__A _091_/A vgnd vpwr scs8hd_diode_2
XFILLER_9_16 vgnd vpwr scs8hd_decap_4
XFILLER_13_80 vgnd vpwr scs8hd_fill_1
XFILLER_13_91 vpwr vgnd scs8hd_fill_2
Xmux_bottom_ipin_0.mux_l1_in_0_.TGATE_2_.scs8hd_ebufn_2 mux_bottom_ipin_0.INVTX1_2_.scs8hd_inv_1/Y
+ mem_bottom_ipin_0.LATCH_2_.latch/Q mux_bottom_ipin_0.mux_l1_in_0_.TGATE_2_.scs8hd_ebufn_2/Z
+ vgnd vpwr scs8hd_ebufn_2
XFILLER_34_68 vgnd vpwr scs8hd_decap_12
XANTENNA__086__A _126_/A vgnd vpwr scs8hd_diode_2
XFILLER_1_3 vgnd vpwr scs8hd_decap_12
XANTENNA_mem_bottom_ipin_7.LATCH_4_.latch_SLEEPB _093_/Y vgnd vpwr scs8hd_diode_2
XFILLER_34_3 vgnd vpwr scs8hd_decap_12
XANTENNA_mem_bottom_ipin_2.LATCH_4_.latch_D data_in vgnd vpwr scs8hd_diode_2
XFILLER_1_94 vpwr vgnd scs8hd_fill_2
XANTENNA_mem_bottom_ipin_3.LATCH_2_.latch_D data_in vgnd vpwr scs8hd_diode_2
XFILLER_20_26 vpwr vgnd scs8hd_fill_2
XFILLER_20_59 vpwr vgnd scs8hd_fill_2
XANTENNA_mem_bottom_ipin_4.LATCH_0_.latch_D data_in vgnd vpwr scs8hd_diode_2
Xmux_bottom_ipin_7.mux_l1_in_1_.TGATE_0_.scs8hd_ebufn_2 mux_bottom_ipin_7.INVTX1_3_.scs8hd_inv_1/Y
+ mem_bottom_ipin_7.LATCH_0_.latch/Q mux_bottom_ipin_7.mux_l1_in_1_.TGATE_2_.scs8hd_ebufn_2/Z
+ vgnd vpwr scs8hd_ebufn_2
XFILLER_19_90 vgnd vpwr scs8hd_decap_3
XFILLER_25_158 vgnd vpwr scs8hd_fill_1
XANTENNA_mux_bottom_ipin_2.INVTX1_5_.scs8hd_inv_1_A chanx_right_in[6] vgnd vpwr scs8hd_diode_2
XFILLER_25_114 vpwr vgnd scs8hd_fill_2
XFILLER_15_15 vpwr vgnd scs8hd_fill_2
XFILLER_15_26 vpwr vgnd scs8hd_fill_2
XFILLER_33_180 vgnd vpwr scs8hd_decap_3
XANTENNA__083__B _091_/B vgnd vpwr scs8hd_diode_2
XFILLER_15_59 vpwr vgnd scs8hd_fill_2
XFILLER_16_103 vgnd vpwr scs8hd_decap_6
XPHY_175 vgnd vpwr scs8hd_tapvpwrvgnd_1
XPHY_164 vgnd vpwr scs8hd_tapvpwrvgnd_1
XPHY_120 vgnd vpwr scs8hd_tapvpwrvgnd_1
XPHY_131 vgnd vpwr scs8hd_tapvpwrvgnd_1
XFILLER_16_125 vgnd vpwr scs8hd_decap_8
XPHY_142 vgnd vpwr scs8hd_tapvpwrvgnd_1
XPHY_153 vgnd vpwr scs8hd_tapvpwrvgnd_1
XPHY_197 vgnd vpwr scs8hd_tapvpwrvgnd_1
XPHY_186 vgnd vpwr scs8hd_tapvpwrvgnd_1
XPHY_0 vgnd vpwr scs8hd_decap_3
XFILLER_30_194 vgnd vpwr scs8hd_decap_4
XFILLER_30_161 vpwr vgnd scs8hd_fill_2
XFILLER_15_191 vpwr vgnd scs8hd_fill_2
XFILLER_22_128 vgnd vpwr scs8hd_decap_8
XANTENNA__078__B _082_/B vgnd vpwr scs8hd_diode_2
XANTENNA__094__A _127_/A vgnd vpwr scs8hd_diode_2
XFILLER_13_106 vpwr vgnd scs8hd_fill_2
XFILLER_13_117 vpwr vgnd scs8hd_fill_2
XFILLER_21_161 vpwr vgnd scs8hd_fill_2
XFILLER_21_172 vgnd vpwr scs8hd_decap_4
XFILLER_3_18 vgnd vpwr scs8hd_decap_6
XANTENNA_mux_bottom_ipin_0.mux_l1_in_1_.TGATE_2_.scs8hd_ebufn_2_A mux_bottom_ipin_0.INVTX1_5_.scs8hd_inv_1/Y
+ vgnd vpwr scs8hd_diode_2
XFILLER_8_154 vgnd vpwr scs8hd_decap_3
XANTENNA_mem_bottom_ipin_7.LATCH_4_.latch_D data_in vgnd vpwr scs8hd_diode_2
XFILLER_12_194 vpwr vgnd scs8hd_fill_2
XANTENNA_mem_bottom_ipin_5.LATCH_5_.latch_SLEEPB _077_/Y vgnd vpwr scs8hd_diode_2
XFILLER_26_231 vpwr vgnd scs8hd_fill_2
XANTENNA__089__A _073_/A vgnd vpwr scs8hd_diode_2
XFILLER_5_179 vpwr vgnd scs8hd_fill_2
XFILLER_5_135 vpwr vgnd scs8hd_fill_2
XFILLER_17_231 vpwr vgnd scs8hd_fill_2
XFILLER_4_61 vgnd vpwr scs8hd_decap_4
XANTENNA__075__C _091_/C vgnd vpwr scs8hd_diode_2
Xmux_bottom_ipin_5.INVTX1_1_.scs8hd_inv_1 chanx_right_in[0] mux_bottom_ipin_5.INVTX1_1_.scs8hd_inv_1/Y
+ vgnd vpwr scs8hd_inv_1
XANTENNA__091__B _091_/B vgnd vpwr scs8hd_diode_2
XANTENNA_mux_bottom_ipin_7.mux_l1_in_1_.TGATE_1_.scs8hd_ebufn_2_A mux_bottom_ipin_7.INVTX1_4_.scs8hd_inv_1/Y
+ vgnd vpwr scs8hd_diode_2
Xmux_bottom_ipin_6.INVTX1_5_.scs8hd_inv_1 chanx_right_in[6] mux_bottom_ipin_6.INVTX1_5_.scs8hd_inv_1/Y
+ vgnd vpwr scs8hd_inv_1
XANTENNA__086__B _086_/B vgnd vpwr scs8hd_diode_2
Xmem_bottom_ipin_2.LATCH_2_.latch data_in mem_bottom_ipin_2.LATCH_2_.latch/Q _128_/Y
+ vgnd vpwr scs8hd_lpflow_inputisolatch_1
XANTENNA_mux_bottom_ipin_6.mux_l1_in_0_.TGATE_2_.scs8hd_ebufn_2_TEB mem_bottom_ipin_6.LATCH_2_.latch/Q
+ vgnd vpwr scs8hd_diode_2
XANTENNA_mux_top_ipin_0.mux_l1_in_0_.TGATE_0_.scs8hd_ebufn_2_TEB mem_top_ipin_0.LATCH_0_.latch/Q
+ vgnd vpwr scs8hd_diode_2
XANTENNA_mux_top_ipin_0.INVTX1_4_.scs8hd_inv_1_A chanx_left_in[8] vgnd vpwr scs8hd_diode_2
XFILLER_27_3 vgnd vpwr scs8hd_decap_4
X_099_ _091_/A address[4] address[3] _099_/D _100_/B vgnd vpwr scs8hd_or4_4
XANTENNA_mux_bottom_ipin_1.mux_l2_in_0_.TGATE_2_.scs8hd_ebufn_2_A _132_/HI vgnd vpwr
+ scs8hd_diode_2
XFILLER_1_62 vgnd vpwr scs8hd_decap_3
XFILLER_1_84 vgnd vpwr scs8hd_decap_4
XANTENNA_mux_bottom_ipin_0.INVTX1_2_.scs8hd_inv_1_A chanx_left_in[4] vgnd vpwr scs8hd_diode_2
XFILLER_29_58 vgnd vpwr scs8hd_decap_3
XFILLER_28_112 vgnd vpwr scs8hd_decap_8
Xmem_bottom_ipin_4.LATCH_5_.latch data_in mem_bottom_ipin_4.LATCH_5_.latch/Q _069_/Y
+ vgnd vpwr scs8hd_lpflow_inputisolatch_1
XFILLER_28_189 vgnd vpwr scs8hd_decap_4
XANTENNA__097__A _074_/A vgnd vpwr scs8hd_diode_2
Xmux_top_ipin_0.mux_l2_in_0_.TGATE_0_.scs8hd_ebufn_2 mux_top_ipin_0.mux_l2_in_0_.TGATE_0_.scs8hd_ebufn_2/A
+ mem_top_ipin_0.LATCH_3_.latch/Q mux_top_ipin_0.tap_buf4_0_.scs8hd_inv_1/A vgnd vpwr
+ scs8hd_ebufn_2
XANTENNA_mux_bottom_ipin_4.INVTX1_3_.scs8hd_inv_1_A chanx_right_in[4] vgnd vpwr scs8hd_diode_2
XFILLER_3_222 vgnd vpwr scs8hd_decap_8
XFILLER_19_134 vpwr vgnd scs8hd_fill_2
XANTENNA_mux_bottom_ipin_1.mux_l1_in_0_.TGATE_2_.scs8hd_ebufn_2_TEB mem_bottom_ipin_1.LATCH_2_.latch/Q
+ vgnd vpwr scs8hd_diode_2
XFILLER_25_126 vpwr vgnd scs8hd_fill_2
XFILLER_15_49 vgnd vpwr scs8hd_decap_4
XFILLER_31_59 vpwr vgnd scs8hd_fill_2
XFILLER_31_15 vgnd vpwr scs8hd_decap_12
XANTENNA__083__C address[3] vgnd vpwr scs8hd_diode_2
XPHY_198 vgnd vpwr scs8hd_tapvpwrvgnd_1
XPHY_187 vgnd vpwr scs8hd_tapvpwrvgnd_1
XPHY_176 vgnd vpwr scs8hd_tapvpwrvgnd_1
XPHY_165 vgnd vpwr scs8hd_tapvpwrvgnd_1
XPHY_110 vgnd vpwr scs8hd_tapvpwrvgnd_1
XPHY_121 vgnd vpwr scs8hd_tapvpwrvgnd_1
XPHY_132 vgnd vpwr scs8hd_tapvpwrvgnd_1
XPHY_143 vgnd vpwr scs8hd_tapvpwrvgnd_1
XPHY_154 vgnd vpwr scs8hd_tapvpwrvgnd_1
XPHY_1 vgnd vpwr scs8hd_decap_3