* NGSPICE file created from cbx_1__3_.ext - technology: EFS8A

* Black-box entry subcircuit for scs8hd_fill_2 abstract view
.subckt scs8hd_fill_2 vpwr vgnd
.ends

* Black-box entry subcircuit for scs8hd_decap_6 abstract view
.subckt scs8hd_decap_6 vgnd vpwr
.ends

* Black-box entry subcircuit for scs8hd_decap_4 abstract view
.subckt scs8hd_decap_4 vgnd vpwr
.ends

* Black-box entry subcircuit for scs8hd_diode_2 abstract view
.subckt scs8hd_diode_2 DIODE vgnd vpwr
.ends

* Black-box entry subcircuit for scs8hd_lpflow_inputisolatch_1 abstract view
.subckt scs8hd_lpflow_inputisolatch_1 D Q SLEEPB vgnd vpwr
.ends

* Black-box entry subcircuit for scs8hd_decap_3 abstract view
.subckt scs8hd_decap_3 vgnd vpwr
.ends

* Black-box entry subcircuit for scs8hd_nor2_4 abstract view
.subckt scs8hd_nor2_4 A B Y vgnd vpwr
.ends

* Black-box entry subcircuit for scs8hd_conb_1 abstract view
.subckt scs8hd_conb_1 HI LO vgnd vpwr
.ends

* Black-box entry subcircuit for scs8hd_inv_8 abstract view
.subckt scs8hd_inv_8 A Y vgnd vpwr
.ends

* Black-box entry subcircuit for scs8hd_ebufn_2 abstract view
.subckt scs8hd_ebufn_2 A TEB Z vgnd vpwr
.ends

* Black-box entry subcircuit for scs8hd_decap_12 abstract view
.subckt scs8hd_decap_12 vgnd vpwr
.ends

* Black-box entry subcircuit for scs8hd_inv_1 abstract view
.subckt scs8hd_inv_1 A Y vgnd vpwr
.ends

* Black-box entry subcircuit for scs8hd_or3_4 abstract view
.subckt scs8hd_or3_4 A B C X vgnd vpwr
.ends

* Black-box entry subcircuit for scs8hd_fill_1 abstract view
.subckt scs8hd_fill_1 vgnd vpwr
.ends

* Black-box entry subcircuit for scs8hd_decap_8 abstract view
.subckt scs8hd_decap_8 vgnd vpwr
.ends

* Black-box entry subcircuit for scs8hd_tapvpwrvgnd_1 abstract view
.subckt scs8hd_tapvpwrvgnd_1 vgnd vpwr
.ends

* Black-box entry subcircuit for scs8hd_or4_4 abstract view
.subckt scs8hd_or4_4 A B C D X vgnd vpwr
.ends

* Black-box entry subcircuit for scs8hd_or2_4 abstract view
.subckt scs8hd_or2_4 A B X vgnd vpwr
.ends

* Black-box entry subcircuit for scs8hd_buf_2 abstract view
.subckt scs8hd_buf_2 A X vgnd vpwr
.ends

* Black-box entry subcircuit for scs8hd_nor3_4 abstract view
.subckt scs8hd_nor3_4 A B C Y vgnd vpwr
.ends

* Black-box entry subcircuit for scs8hd_nand2_4 abstract view
.subckt scs8hd_nand2_4 A B Y vgnd vpwr
.ends

.subckt cbx_1__3_ address[0] address[1] address[2] address[3] address[4] address[5]
+ address[6] bottom_grid_pin_0_ bottom_grid_pin_4_ bottom_grid_pin_8_ chanx_left_in[0]
+ chanx_left_in[1] chanx_left_in[2] chanx_left_in[3] chanx_left_in[4] chanx_left_in[5]
+ chanx_left_in[6] chanx_left_in[7] chanx_left_in[8] chanx_left_out[0] chanx_left_out[1]
+ chanx_left_out[2] chanx_left_out[3] chanx_left_out[4] chanx_left_out[5] chanx_left_out[6]
+ chanx_left_out[7] chanx_left_out[8] chanx_right_in[0] chanx_right_in[1] chanx_right_in[2]
+ chanx_right_in[3] chanx_right_in[4] chanx_right_in[5] chanx_right_in[6] chanx_right_in[7]
+ chanx_right_in[8] chanx_right_out[0] chanx_right_out[1] chanx_right_out[2] chanx_right_out[3]
+ chanx_right_out[4] chanx_right_out[5] chanx_right_out[6] chanx_right_out[7] chanx_right_out[8]
+ data_in enable top_grid_pin_0_ top_grid_pin_10_ top_grid_pin_12_ top_grid_pin_14_
+ top_grid_pin_2_ top_grid_pin_4_ top_grid_pin_6_ top_grid_pin_8_ vpwr vgnd
XFILLER_7_7 vpwr vgnd scs8hd_fill_2
XFILLER_26_41 vpwr vgnd scs8hd_fill_2
XFILLER_13_111 vpwr vgnd scs8hd_fill_2
XFILLER_9_104 vpwr vgnd scs8hd_fill_2
XFILLER_9_115 vgnd vpwr scs8hd_decap_6
XFILLER_9_126 vpwr vgnd scs8hd_fill_2
XFILLER_13_177 vgnd vpwr scs8hd_decap_4
XFILLER_3_23 vpwr vgnd scs8hd_fill_2
XANTENNA__113__B _111_/B vgnd vpwr scs8hd_diode_2
XFILLER_3_89 vpwr vgnd scs8hd_fill_2
XANTENNA_mux_bottom_ipin_6.mux_l1_in_0_.TGATE_1_.scs8hd_ebufn_2_TEB mem_bottom_ipin_6.LATCH_1_.latch/Q
+ vgnd vpwr scs8hd_diode_2
Xmem_bottom_ipin_2.LATCH_1_.latch data_in mem_bottom_ipin_2.LATCH_1_.latch/Q _129_/Y
+ vgnd vpwr scs8hd_lpflow_inputisolatch_1
XFILLER_12_32 vgnd vpwr scs8hd_decap_3
XFILLER_12_76 vgnd vpwr scs8hd_decap_3
XANTENNA__108__B _108_/B vgnd vpwr scs8hd_diode_2
XFILLER_5_140 vpwr vgnd scs8hd_fill_2
XANTENNA__124__A _055_/D vgnd vpwr scs8hd_diode_2
Xmem_bottom_ipin_4.LATCH_4_.latch data_in mem_bottom_ipin_4.LATCH_4_.latch/Q _070_/Y
+ vgnd vpwr scs8hd_lpflow_inputisolatch_1
XANTENNA_mux_bottom_ipin_1.mux_l1_in_0_.TGATE_1_.scs8hd_ebufn_2_TEB mem_bottom_ipin_1.LATCH_1_.latch/Q
+ vgnd vpwr scs8hd_diode_2
X_062_ _062_/A _088_/A _062_/Y vgnd vpwr scs8hd_nor2_4
X_131_ _131_/HI _131_/LO vgnd vpwr scs8hd_conb_1
XFILLER_2_110 vgnd vpwr scs8hd_decap_4
XANTENNA_mux_bottom_ipin_4.mux_l1_in_1_.TGATE_1_.scs8hd_ebufn_2_A mux_bottom_ipin_4.INVTX1_4_.scs8hd_inv_1/Y
+ vgnd vpwr scs8hd_diode_2
XANTENNA_mem_top_ipin_0.LATCH_3_.latch_D data_in vgnd vpwr scs8hd_diode_2
XANTENNA__110__C address[3] vgnd vpwr scs8hd_diode_2
XFILLER_9_22 vgnd vpwr scs8hd_decap_4
XANTENNA__119__A _086_/A vgnd vpwr scs8hd_diode_2
XANTENNA_mem_top_ipin_1.LATCH_1_.latch_D data_in vgnd vpwr scs8hd_diode_2
XFILLER_18_53 vgnd vpwr scs8hd_decap_3
XFILLER_7_202 vpwr vgnd scs8hd_fill_2
XANTENNA_mux_bottom_ipin_4.mux_l1_in_1_.TGATE_1_.scs8hd_ebufn_2_TEB mem_bottom_ipin_4.LATCH_1_.latch/Q
+ vgnd vpwr scs8hd_diode_2
X_045_ _045_/A _045_/Y vgnd vpwr scs8hd_inv_8
X_114_ _088_/A _111_/B _114_/Y vgnd vpwr scs8hd_nor2_4
XANTENNA__121__B _123_/B vgnd vpwr scs8hd_diode_2
Xmux_bottom_ipin_3.mux_l1_in_0_.TGATE_2_.scs8hd_ebufn_2 mux_bottom_ipin_3.INVTX1_2_.scs8hd_inv_1/Y
+ mem_bottom_ipin_3.LATCH_2_.latch/Q mux_bottom_ipin_3.mux_l2_in_0_.TGATE_0_.scs8hd_ebufn_2/A
+ vgnd vpwr scs8hd_ebufn_2
XFILLER_29_106 vgnd vpwr scs8hd_decap_6
XANTENNA_mem_bottom_ipin_5.LATCH_0_.latch_SLEEPB _082_/Y vgnd vpwr scs8hd_diode_2
XANTENNA_mux_top_ipin_2.INVTX1_1_.scs8hd_inv_1_A chanx_right_in[1] vgnd vpwr scs8hd_diode_2
Xmux_top_ipin_0.mux_l1_in_1_.TGATE_0_.scs8hd_ebufn_2 mux_top_ipin_0.INVTX1_3_.scs8hd_inv_1/Y
+ mem_top_ipin_0.LATCH_0_.latch/Q mux_top_ipin_0.mux_l1_in_1_.TGATE_1_.scs8hd_ebufn_2/Z
+ vgnd vpwr scs8hd_ebufn_2
XFILLER_20_21 vpwr vgnd scs8hd_fill_2
XFILLER_20_32 vpwr vgnd scs8hd_fill_2
XFILLER_29_52 vpwr vgnd scs8hd_fill_2
XFILLER_28_194 vgnd vpwr scs8hd_decap_12
XANTENNA__116__B _111_/B vgnd vpwr scs8hd_diode_2
XANTENNA_mux_top_ipin_0.mux_l1_in_0_.TGATE_2_.scs8hd_ebufn_2_A mux_top_ipin_0.INVTX1_2_.scs8hd_inv_1/Y
+ vgnd vpwr scs8hd_diode_2
XFILLER_13_3 vgnd vpwr scs8hd_decap_3
Xmux_bottom_ipin_0.mux_l2_in_0_.TGATE_2_.scs8hd_ebufn_2 _131_/HI mem_bottom_ipin_0.LATCH_5_.latch/Q
+ mux_bottom_ipin_0.tap_buf4_0_.scs8hd_inv_1/A vgnd vpwr scs8hd_ebufn_2
XANTENNA_mux_bottom_ipin_6.INVTX1_0_.scs8hd_inv_1_A chanx_left_in[1] vgnd vpwr scs8hd_diode_2
XANTENNA__042__A address[0] vgnd vpwr scs8hd_diode_2
Xmux_bottom_ipin_0.INVTX1_3_.scs8hd_inv_1 chanx_right_in[4] mux_bottom_ipin_0.INVTX1_3_.scs8hd_inv_1/Y
+ vgnd vpwr scs8hd_inv_1
XFILLER_25_120 vpwr vgnd scs8hd_fill_2
XFILLER_25_197 vgnd vpwr scs8hd_decap_12
XFILLER_31_97 vpwr vgnd scs8hd_fill_2
XFILLER_31_156 vgnd vpwr scs8hd_decap_12
XFILLER_31_112 vgnd vpwr scs8hd_decap_12
XFILLER_31_101 vgnd vpwr scs8hd_decap_4
XANTENNA__127__A _127_/A vgnd vpwr scs8hd_diode_2
Xmux_bottom_ipin_5.tap_buf4_0_.scs8hd_inv_1 mux_bottom_ipin_5.tap_buf4_0_.scs8hd_inv_1/A
+ top_grid_pin_10_ vgnd vpwr scs8hd_inv_1
XANTENNA_mux_bottom_ipin_4.tap_buf4_0_.scs8hd_inv_1_A mux_bottom_ipin_4.tap_buf4_0_.scs8hd_inv_1/A
+ vgnd vpwr scs8hd_diode_2
XANTENNA_mux_bottom_ipin_5.mux_l2_in_0_.TGATE_1_.scs8hd_ebufn_2_A mux_bottom_ipin_5.mux_l1_in_1_.TGATE_0_.scs8hd_ebufn_2/Z
+ vgnd vpwr scs8hd_diode_2
XANTENNA_mux_bottom_ipin_3.mux_l1_in_0_.TGATE_0_.scs8hd_ebufn_2_TEB mem_bottom_ipin_3.LATCH_0_.latch/Q
+ vgnd vpwr scs8hd_diode_2
XFILLER_22_112 vgnd vpwr scs8hd_decap_3
XFILLER_26_64 vgnd vpwr scs8hd_decap_3
XFILLER_26_20 vpwr vgnd scs8hd_fill_2
Xmem_bottom_ipin_5.LATCH_0_.latch data_in mem_bottom_ipin_5.LATCH_0_.latch/Q _082_/Y
+ vgnd vpwr scs8hd_lpflow_inputisolatch_1
XFILLER_13_123 vgnd vpwr scs8hd_decap_3
XFILLER_13_156 vpwr vgnd scs8hd_fill_2
Xmux_bottom_ipin_6.INVTX1_0_.scs8hd_inv_1 chanx_left_in[1] mux_bottom_ipin_6.INVTX1_0_.scs8hd_inv_1/Y
+ vgnd vpwr scs8hd_inv_1
XANTENNA_mux_top_ipin_0.mux_l2_in_0_.TGATE_0_.scs8hd_ebufn_2_A mux_top_ipin_0.mux_l1_in_0_.TGATE_0_.scs8hd_ebufn_2/Z
+ vgnd vpwr scs8hd_diode_2
XFILLER_3_57 vpwr vgnd scs8hd_fill_2
XANTENNA_mux_bottom_ipin_1.mux_l1_in_0_.TGATE_1_.scs8hd_ebufn_2_A mux_bottom_ipin_1.INVTX1_1_.scs8hd_inv_1/Y
+ vgnd vpwr scs8hd_diode_2
XFILLER_10_137 vpwr vgnd scs8hd_fill_2
XFILLER_10_148 vpwr vgnd scs8hd_fill_2
XFILLER_12_55 vpwr vgnd scs8hd_fill_2
XFILLER_12_88 vpwr vgnd scs8hd_fill_2
XANTENNA_mux_bottom_ipin_6.mux_l1_in_1_.TGATE_0_.scs8hd_ebufn_2_TEB mem_bottom_ipin_6.LATCH_0_.latch/Q
+ vgnd vpwr scs8hd_diode_2
Xmem_bottom_ipin_7.LATCH_3_.latch data_in mem_bottom_ipin_7.LATCH_3_.latch/Q _094_/Y
+ vgnd vpwr scs8hd_lpflow_inputisolatch_1
XANTENNA_mem_bottom_ipin_3.LATCH_1_.latch_SLEEPB _064_/Y vgnd vpwr scs8hd_diode_2
Xmux_bottom_ipin_7.INVTX1_4_.scs8hd_inv_1 chanx_left_in[7] mux_bottom_ipin_7.INVTX1_4_.scs8hd_inv_1/Y
+ vgnd vpwr scs8hd_inv_1
XANTENNA__108__C _108_/C vgnd vpwr scs8hd_diode_2
XFILLER_5_174 vpwr vgnd scs8hd_fill_2
XANTENNA__124__B _124_/B vgnd vpwr scs8hd_diode_2
Xmux_top_ipin_0.tap_buf4_0_.scs8hd_inv_1 mux_top_ipin_0.tap_buf4_0_.scs8hd_inv_1/A
+ bottom_grid_pin_0_ vgnd vpwr scs8hd_inv_1
XANTENNA__050__A address[6] vgnd vpwr scs8hd_diode_2
X_130_ _090_/A _127_/B _130_/Y vgnd vpwr scs8hd_nor2_4
XFILLER_23_21 vgnd vpwr scs8hd_decap_3
X_061_ _059_/A address[2] address[0] _088_/A vgnd vpwr scs8hd_or3_4
XFILLER_23_76 vpwr vgnd scs8hd_fill_2
XANTENNA__110__D _055_/D vgnd vpwr scs8hd_diode_2
XFILLER_0_25 vpwr vgnd scs8hd_fill_2
XFILLER_0_58 vpwr vgnd scs8hd_fill_2
XANTENNA__119__B _123_/B vgnd vpwr scs8hd_diode_2
XFILLER_9_45 vgnd vpwr scs8hd_decap_3
XANTENNA_mux_bottom_ipin_1.mux_l1_in_1_.TGATE_0_.scs8hd_ebufn_2_TEB mem_bottom_ipin_1.LATCH_0_.latch/Q
+ vgnd vpwr scs8hd_diode_2
XFILLER_20_210 vpwr vgnd scs8hd_fill_2
XANTENNA__045__A _045_/A vgnd vpwr scs8hd_diode_2
X_113_ _127_/A _111_/B _113_/Y vgnd vpwr scs8hd_nor2_4
X_044_ _044_/A _044_/Y vgnd vpwr scs8hd_inv_8
XFILLER_15_7 vpwr vgnd scs8hd_fill_2
XFILLER_22_8 vgnd vpwr scs8hd_decap_3
XFILLER_29_129 vgnd vpwr scs8hd_fill_1
XFILLER_20_55 vgnd vpwr scs8hd_decap_3
XFILLER_29_75 vgnd vpwr scs8hd_decap_8
XANTENNA_mem_bottom_ipin_1.LATCH_2_.latch_SLEEPB _121_/Y vgnd vpwr scs8hd_diode_2
XFILLER_19_173 vpwr vgnd scs8hd_fill_2
XFILLER_15_11 vpwr vgnd scs8hd_fill_2
XANTENNA_mem_bottom_ipin_0.LATCH_5_.latch_D data_in vgnd vpwr scs8hd_diode_2
XFILLER_31_54 vgnd vpwr scs8hd_decap_8
XFILLER_31_21 vgnd vpwr scs8hd_decap_8
XFILLER_31_10 vgnd vpwr scs8hd_decap_4
XANTENNA_mem_bottom_ipin_1.LATCH_3_.latch_D data_in vgnd vpwr scs8hd_diode_2
XFILLER_31_168 vgnd vpwr scs8hd_decap_12
XPHY_160 vgnd vpwr scs8hd_tapvpwrvgnd_1
XANTENNA__127__B _127_/B vgnd vpwr scs8hd_diode_2
XANTENNA__143__A chanx_right_in[7] vgnd vpwr scs8hd_diode_2
XANTENNA_mem_bottom_ipin_2.LATCH_1_.latch_D data_in vgnd vpwr scs8hd_diode_2
XFILLER_30_190 vgnd vpwr scs8hd_decap_12
XANTENNA__053__A address[1] vgnd vpwr scs8hd_diode_2
XFILLER_26_32 vpwr vgnd scs8hd_fill_2
Xmem_top_ipin_0.LATCH_4_.latch data_in mem_top_ipin_0.LATCH_4_.latch/Q _101_/Y vgnd
+ vpwr scs8hd_lpflow_inputisolatch_1
XFILLER_26_76 vpwr vgnd scs8hd_fill_2
XFILLER_3_69 vpwr vgnd scs8hd_fill_2
XFILLER_3_36 vpwr vgnd scs8hd_fill_2
XFILLER_3_14 vpwr vgnd scs8hd_fill_2
XANTENNA__048__A address[2] vgnd vpwr scs8hd_diode_2
XFILLER_10_105 vgnd vpwr scs8hd_decap_4
XFILLER_10_116 vpwr vgnd scs8hd_fill_2
XFILLER_12_12 vpwr vgnd scs8hd_fill_2
XFILLER_12_23 vpwr vgnd scs8hd_fill_2
Xmux_bottom_ipin_2.mux_l1_in_0_.TGATE_2_.scs8hd_ebufn_2 mux_bottom_ipin_2.INVTX1_2_.scs8hd_inv_1/Y
+ mem_bottom_ipin_2.LATCH_2_.latch/Q mux_bottom_ipin_2.mux_l2_in_0_.TGATE_0_.scs8hd_ebufn_2/A
+ vgnd vpwr scs8hd_ebufn_2
XANTENNA_mux_top_ipin_1.mux_l2_in_0_.TGATE_1_.scs8hd_ebufn_2_TEB _043_/Y vgnd vpwr
+ scs8hd_diode_2
XFILLER_5_153 vpwr vgnd scs8hd_fill_2
Xmux_bottom_ipin_4.INVTX1_0_.scs8hd_inv_1 chanx_left_in[3] mux_bottom_ipin_4.INVTX1_0_.scs8hd_inv_1/Y
+ vgnd vpwr scs8hd_inv_1
XANTENNA_mem_bottom_ipin_5.LATCH_5_.latch_D data_in vgnd vpwr scs8hd_diode_2
X_060_ _062_/A _127_/A _060_/Y vgnd vpwr scs8hd_nor2_4
XFILLER_3_3 vpwr vgnd scs8hd_fill_2
XFILLER_2_145 vpwr vgnd scs8hd_fill_2
XANTENNA_mem_bottom_ipin_6.LATCH_3_.latch_D data_in vgnd vpwr scs8hd_diode_2
XFILLER_23_99 vgnd vpwr scs8hd_decap_3
XFILLER_2_167 vgnd vpwr scs8hd_decap_4
XFILLER_0_37 vpwr vgnd scs8hd_fill_2
XANTENNA_mux_bottom_ipin_5.mux_l1_in_1_.TGATE_1_.scs8hd_ebufn_2_A mux_bottom_ipin_5.INVTX1_4_.scs8hd_inv_1/Y
+ vgnd vpwr scs8hd_diode_2
XANTENNA_mem_bottom_ipin_7.LATCH_1_.latch_D data_in vgnd vpwr scs8hd_diode_2
XFILLER_9_57 vpwr vgnd scs8hd_fill_2
Xmux_bottom_ipin_5.INVTX1_4_.scs8hd_inv_1 chanx_left_in[5] mux_bottom_ipin_5.INVTX1_4_.scs8hd_inv_1/Y
+ vgnd vpwr scs8hd_inv_1
XANTENNA__151__A chanx_left_in[8] vgnd vpwr scs8hd_diode_2
XANTENNA__061__A _059_/A vgnd vpwr scs8hd_diode_2
Xmem_bottom_ipin_0.LATCH_4_.latch data_in mem_bottom_ipin_0.LATCH_4_.latch/Q _112_/Y
+ vgnd vpwr scs8hd_lpflow_inputisolatch_1
XANTENNA_mux_top_ipin_0.mux_l1_in_1_.TGATE_0_.scs8hd_ebufn_2_A mux_top_ipin_0.INVTX1_3_.scs8hd_inv_1/Y
+ vgnd vpwr scs8hd_diode_2
XFILLER_18_88 vgnd vpwr scs8hd_fill_1
X_043_ _043_/A _043_/Y vgnd vpwr scs8hd_inv_8
X_112_ _086_/A _111_/B _112_/Y vgnd vpwr scs8hd_nor2_4
XANTENNA__146__A chanx_right_in[4] vgnd vpwr scs8hd_diode_2
XANTENNA__056__A _056_/A vgnd vpwr scs8hd_diode_2
XFILLER_6_36 vgnd vpwr scs8hd_fill_1
Xmem_top_ipin_1.LATCH_0_.latch data_in _044_/A _107_/Y vgnd vpwr scs8hd_lpflow_inputisolatch_1
XANTENNA_mux_bottom_ipin_1.INVTX1_3_.scs8hd_inv_1_A chanx_right_in[1] vgnd vpwr scs8hd_diode_2
XFILLER_25_166 vpwr vgnd scs8hd_fill_2
XFILLER_25_155 vpwr vgnd scs8hd_fill_2
XFILLER_25_144 vpwr vgnd scs8hd_fill_2
XFILLER_31_77 vpwr vgnd scs8hd_fill_2
XFILLER_31_66 vgnd vpwr scs8hd_decap_8
XANTENNA_mux_bottom_ipin_5.INVTX1_4_.scs8hd_inv_1_A chanx_left_in[5] vgnd vpwr scs8hd_diode_2
XFILLER_31_125 vgnd vpwr scs8hd_decap_12
XPHY_161 vgnd vpwr scs8hd_tapvpwrvgnd_1
XPHY_150 vgnd vpwr scs8hd_tapvpwrvgnd_1
XFILLER_16_199 vgnd vpwr scs8hd_decap_12
XFILLER_22_125 vgnd vpwr scs8hd_fill_1
XFILLER_22_147 vgnd vpwr scs8hd_decap_4
XANTENNA_mux_bottom_ipin_6.mux_l2_in_0_.TGATE_1_.scs8hd_ebufn_2_A mux_bottom_ipin_6.mux_l2_in_0_.TGATE_1_.scs8hd_ebufn_2/A
+ vgnd vpwr scs8hd_diode_2
XANTENNA__053__B _048_/Y vgnd vpwr scs8hd_diode_2
XFILLER_21_191 vgnd vpwr scs8hd_decap_4
XANTENNA_mux_top_ipin_1.mux_l2_in_0_.TGATE_0_.scs8hd_ebufn_2_A mux_top_ipin_1.mux_l2_in_0_.TGATE_0_.scs8hd_ebufn_2/A
+ vgnd vpwr scs8hd_diode_2
XANTENNA_mux_bottom_ipin_4.mux_l2_in_0_.TGATE_2_.scs8hd_ebufn_2_TEB mem_bottom_ipin_4.LATCH_5_.latch/Q
+ vgnd vpwr scs8hd_diode_2
XANTENNA__154__A chanx_left_in[5] vgnd vpwr scs8hd_diode_2
XFILLER_8_195 vpwr vgnd scs8hd_fill_2
XFILLER_12_180 vgnd vpwr scs8hd_decap_4
XFILLER_12_191 vpwr vgnd scs8hd_fill_2
XANTENNA_mux_bottom_ipin_2.mux_l1_in_0_.TGATE_1_.scs8hd_ebufn_2_A mux_bottom_ipin_2.INVTX1_1_.scs8hd_inv_1/Y
+ vgnd vpwr scs8hd_diode_2
XANTENNA_mem_bottom_ipin_6.LATCH_2_.latch_SLEEPB _088_/Y vgnd vpwr scs8hd_diode_2
XANTENNA__064__A _062_/A vgnd vpwr scs8hd_diode_2
XFILLER_5_187 vpwr vgnd scs8hd_fill_2
XFILLER_5_198 vpwr vgnd scs8hd_fill_2
Xmem_bottom_ipin_1.LATCH_0_.latch data_in mem_bottom_ipin_1.LATCH_0_.latch/Q _123_/Y
+ vgnd vpwr scs8hd_lpflow_inputisolatch_1
XANTENNA__149__A chanx_right_in[1] vgnd vpwr scs8hd_diode_2
XFILLER_4_91 vgnd vpwr scs8hd_fill_1
XANTENNA__059__A _059_/A vgnd vpwr scs8hd_diode_2
XFILLER_23_45 vpwr vgnd scs8hd_fill_2
XFILLER_23_56 vgnd vpwr scs8hd_decap_3
XFILLER_2_102 vpwr vgnd scs8hd_fill_2
Xmem_bottom_ipin_3.LATCH_3_.latch data_in mem_bottom_ipin_3.LATCH_3_.latch/Q _060_/Y
+ vgnd vpwr scs8hd_lpflow_inputisolatch_1
Xmux_top_ipin_2.mux_l2_in_0_.TGATE_0_.scs8hd_ebufn_2 mux_top_ipin_2.mux_l1_in_0_.TGATE_1_.scs8hd_ebufn_2/Z
+ _045_/A mux_top_ipin_2.tap_buf4_0_.scs8hd_inv_1/A vgnd vpwr scs8hd_ebufn_2
XANTENNA__061__B address[2] vgnd vpwr scs8hd_diode_2
Xmux_bottom_ipin_2.INVTX1_0_.scs8hd_inv_1 chanx_left_in[1] mux_bottom_ipin_2.INVTX1_0_.scs8hd_inv_1/Y
+ vgnd vpwr scs8hd_inv_1
XFILLER_18_23 vgnd vpwr scs8hd_decap_8
XFILLER_18_45 vgnd vpwr scs8hd_decap_8
XFILLER_18_67 vpwr vgnd scs8hd_fill_2
X_042_ address[0] _108_/C vgnd vpwr scs8hd_inv_8
Xmux_top_ipin_1.INVTX1_0_.scs8hd_inv_1 chanx_left_in[0] mux_top_ipin_1.INVTX1_0_.scs8hd_inv_1/Y
+ vgnd vpwr scs8hd_inv_1
X_111_ _056_/A _111_/B _111_/Y vgnd vpwr scs8hd_nor2_4
XANTENNA__056__B _062_/A vgnd vpwr scs8hd_diode_2
XANTENNA__072__A _088_/A vgnd vpwr scs8hd_diode_2
XANTENNA_mem_bottom_ipin_4.LATCH_3_.latch_SLEEPB _071_/Y vgnd vpwr scs8hd_diode_2
Xmux_bottom_ipin_3.INVTX1_4_.scs8hd_inv_1 chanx_left_in[7] mux_bottom_ipin_3.INVTX1_4_.scs8hd_inv_1/Y
+ vgnd vpwr scs8hd_inv_1
XFILLER_29_99 vgnd vpwr scs8hd_decap_4
XANTENNA_mux_bottom_ipin_3.INVTX1_1_.scs8hd_inv_1_A chanx_right_in[2] vgnd vpwr scs8hd_diode_2
XANTENNA_mux_bottom_ipin_6.mux_l2_in_0_.TGATE_1_.scs8hd_ebufn_2_TEB mem_bottom_ipin_6.LATCH_4_.latch/Q
+ vgnd vpwr scs8hd_diode_2
XFILLER_6_26 vgnd vpwr scs8hd_decap_3
XANTENNA__157__A chanx_left_in[2] vgnd vpwr scs8hd_diode_2
XFILLER_19_153 vpwr vgnd scs8hd_fill_2
XANTENNA_mux_bottom_ipin_7.INVTX1_2_.scs8hd_inv_1_A chanx_left_in[6] vgnd vpwr scs8hd_diode_2
Xmux_bottom_ipin_1.mux_l1_in_0_.TGATE_2_.scs8hd_ebufn_2 mux_bottom_ipin_1.INVTX1_2_.scs8hd_inv_1/Y
+ mem_bottom_ipin_1.LATCH_2_.latch/Q mux_bottom_ipin_1.mux_l1_in_0_.TGATE_2_.scs8hd_ebufn_2/Z
+ vgnd vpwr scs8hd_ebufn_2
XFILLER_25_123 vgnd vpwr scs8hd_decap_4
XFILLER_25_112 vpwr vgnd scs8hd_fill_2
XANTENNA__067__A address[5] vgnd vpwr scs8hd_diode_2
XFILLER_15_57 vpwr vgnd scs8hd_fill_2
XFILLER_15_79 vgnd vpwr scs8hd_decap_4
XFILLER_16_145 vgnd vpwr scs8hd_decap_6
XFILLER_31_137 vgnd vpwr scs8hd_decap_12
XPHY_162 vgnd vpwr scs8hd_tapvpwrvgnd_1
XPHY_151 vgnd vpwr scs8hd_tapvpwrvgnd_1
XPHY_140 vgnd vpwr scs8hd_tapvpwrvgnd_1
XANTENNA_mux_bottom_ipin_1.mux_l2_in_0_.TGATE_1_.scs8hd_ebufn_2_TEB mem_bottom_ipin_1.LATCH_4_.latch/Q
+ vgnd vpwr scs8hd_diode_2
XFILLER_22_137 vgnd vpwr scs8hd_decap_3
XANTENNA__053__C _108_/C vgnd vpwr scs8hd_diode_2
XFILLER_26_56 vgnd vpwr scs8hd_decap_6
XFILLER_13_115 vpwr vgnd scs8hd_fill_2
XFILLER_9_108 vgnd vpwr scs8hd_decap_4
XFILLER_21_170 vgnd vpwr scs8hd_fill_1
XFILLER_8_163 vgnd vpwr scs8hd_decap_8
XANTENNA__064__B _089_/A vgnd vpwr scs8hd_diode_2
XANTENNA__080__A _088_/A vgnd vpwr scs8hd_diode_2
XANTENNA_mem_bottom_ipin_2.LATCH_4_.latch_SLEEPB _126_/Y vgnd vpwr scs8hd_diode_2
XFILLER_4_70 vpwr vgnd scs8hd_fill_2
Xmem_bottom_ipin_6.LATCH_2_.latch data_in mem_bottom_ipin_6.LATCH_2_.latch/Q _088_/Y
+ vgnd vpwr scs8hd_lpflow_inputisolatch_1
XANTENNA__059__B address[2] vgnd vpwr scs8hd_diode_2
XANTENNA__075__A _091_/A vgnd vpwr scs8hd_diode_2
XFILLER_2_114 vgnd vpwr scs8hd_fill_1
XANTENNA_mux_bottom_ipin_6.mux_l1_in_1_.TGATE_1_.scs8hd_ebufn_2_A mux_bottom_ipin_6.INVTX1_4_.scs8hd_inv_1/Y
+ vgnd vpwr scs8hd_diode_2
XFILLER_20_202 vgnd vpwr scs8hd_decap_8
XANTENNA_mux_top_ipin_1.INVTX1_0_.scs8hd_inv_1_A chanx_left_in[0] vgnd vpwr scs8hd_diode_2
XANTENNA__061__C address[0] vgnd vpwr scs8hd_diode_2
X_110_ _091_/A address[4] address[3] _055_/D _111_/B vgnd vpwr scs8hd_or4_4
XFILLER_7_206 vgnd vpwr scs8hd_decap_6
XANTENNA_mux_bottom_ipin_0.mux_l2_in_0_.TGATE_2_.scs8hd_ebufn_2_A _131_/HI vgnd vpwr
+ scs8hd_diode_2
XANTENNA_mux_bottom_ipin_3.mux_l2_in_0_.TGATE_0_.scs8hd_ebufn_2_TEB mem_bottom_ipin_3.LATCH_3_.latch/Q
+ vgnd vpwr scs8hd_diode_2
XANTENNA__072__B _071_/B vgnd vpwr scs8hd_diode_2
XANTENNA_mem_top_ipin_1.LATCH_1_.latch_SLEEPB _106_/Y vgnd vpwr scs8hd_diode_2
XFILLER_20_25 vpwr vgnd scs8hd_fill_2
XFILLER_20_36 vpwr vgnd scs8hd_fill_2
XFILLER_20_47 vgnd vpwr scs8hd_decap_8
XFILLER_29_56 vgnd vpwr scs8hd_decap_3
XFILLER_29_12 vpwr vgnd scs8hd_fill_2
XFILLER_28_154 vgnd vpwr scs8hd_fill_1
Xmux_bottom_ipin_0.INVTX1_0_.scs8hd_inv_1 chanx_left_in[0] mux_bottom_ipin_0.INVTX1_0_.scs8hd_inv_1/Y
+ vgnd vpwr scs8hd_inv_1
XFILLER_10_80 vpwr vgnd scs8hd_fill_2
XFILLER_19_132 vpwr vgnd scs8hd_fill_2
XANTENNA_mem_bottom_ipin_0.LATCH_5_.latch_SLEEPB _111_/Y vgnd vpwr scs8hd_diode_2
XFILLER_19_187 vpwr vgnd scs8hd_fill_2
XFILLER_19_198 vpwr vgnd scs8hd_fill_2
XFILLER_31_35 vgnd vpwr scs8hd_decap_8
XANTENNA__067__B _098_/B vgnd vpwr scs8hd_diode_2
XANTENNA__083__A _091_/A vgnd vpwr scs8hd_diode_2
XFILLER_15_25 vpwr vgnd scs8hd_fill_2
XFILLER_15_36 vpwr vgnd scs8hd_fill_2
XFILLER_31_149 vgnd vpwr scs8hd_decap_6
XPHY_152 vgnd vpwr scs8hd_tapvpwrvgnd_1
XPHY_141 vgnd vpwr scs8hd_tapvpwrvgnd_1
Xmux_bottom_ipin_1.INVTX1_4_.scs8hd_inv_1 chanx_left_in[5] mux_bottom_ipin_1.INVTX1_4_.scs8hd_inv_1/Y
+ vgnd vpwr scs8hd_inv_1
XPHY_130 vgnd vpwr scs8hd_tapvpwrvgnd_1
XPHY_163 vgnd vpwr scs8hd_tapvpwrvgnd_1
Xmux_top_ipin_0.INVTX1_4_.scs8hd_inv_1 chanx_left_in[8] mux_top_ipin_0.INVTX1_4_.scs8hd_inv_1/Y
+ vgnd vpwr scs8hd_inv_1
XANTENNA_mux_top_ipin_0.tap_buf4_0_.scs8hd_inv_1_A mux_top_ipin_0.tap_buf4_0_.scs8hd_inv_1/A
+ vgnd vpwr scs8hd_diode_2
XANTENNA_mux_bottom_ipin_7.mux_l2_in_0_.TGATE_1_.scs8hd_ebufn_2_A mux_bottom_ipin_7.mux_l2_in_0_.TGATE_1_.scs8hd_ebufn_2/A
+ vgnd vpwr scs8hd_diode_2
XFILLER_7_92 vpwr vgnd scs8hd_fill_2
XFILLER_26_24 vgnd vpwr scs8hd_decap_4
XANTENNA__078__A _086_/A vgnd vpwr scs8hd_diode_2
Xmux_top_ipin_1.mux_l2_in_0_.TGATE_0_.scs8hd_ebufn_2 mux_top_ipin_1.mux_l2_in_0_.TGATE_0_.scs8hd_ebufn_2/A
+ _043_/A mux_top_ipin_1.tap_buf4_0_.scs8hd_inv_1/A vgnd vpwr scs8hd_ebufn_2
XANTENNA_mux_top_ipin_2.mux_l2_in_0_.TGATE_0_.scs8hd_ebufn_2_A mux_top_ipin_2.mux_l1_in_0_.TGATE_1_.scs8hd_ebufn_2/Z
+ vgnd vpwr scs8hd_diode_2
Xmux_bottom_ipin_7.INVTX1_1_.scs8hd_inv_1 chanx_right_in[2] mux_bottom_ipin_7.INVTX1_1_.scs8hd_inv_1/Y
+ vgnd vpwr scs8hd_inv_1
XFILLER_27_208 vgnd vpwr scs8hd_decap_4
XANTENNA_mux_bottom_ipin_3.mux_l1_in_0_.TGATE_1_.scs8hd_ebufn_2_A mux_bottom_ipin_3.INVTX1_1_.scs8hd_inv_1/Y
+ vgnd vpwr scs8hd_diode_2
XFILLER_12_59 vpwr vgnd scs8hd_fill_2
XANTENNA__080__B _081_/B vgnd vpwr scs8hd_diode_2
XFILLER_5_123 vpwr vgnd scs8hd_fill_2
XFILLER_5_112 vpwr vgnd scs8hd_fill_2
XFILLER_5_178 vgnd vpwr scs8hd_decap_4
XANTENNA__059__C _108_/C vgnd vpwr scs8hd_diode_2
XANTENNA__075__B address[4] vgnd vpwr scs8hd_diode_2
XFILLER_23_211 vgnd vpwr scs8hd_fill_1
XANTENNA__091__A _091_/A vgnd vpwr scs8hd_diode_2
XFILLER_2_126 vgnd vpwr scs8hd_decap_3
XFILLER_0_29 vpwr vgnd scs8hd_fill_2
XFILLER_9_16 vgnd vpwr scs8hd_decap_4
XFILLER_1_170 vpwr vgnd scs8hd_fill_2
Xmux_bottom_ipin_0.mux_l1_in_0_.TGATE_2_.scs8hd_ebufn_2 mux_bottom_ipin_0.INVTX1_2_.scs8hd_inv_1/Y
+ mem_bottom_ipin_0.LATCH_2_.latch/Q mux_bottom_ipin_0.mux_l2_in_0_.TGATE_0_.scs8hd_ebufn_2/A
+ vgnd vpwr scs8hd_ebufn_2
XANTENNA__086__A _086_/A vgnd vpwr scs8hd_diode_2
XFILLER_1_3 vgnd vpwr scs8hd_decap_4
XANTENNA_mem_bottom_ipin_7.LATCH_4_.latch_SLEEPB _093_/Y vgnd vpwr scs8hd_diode_2
XANTENNA_mem_bottom_ipin_2.LATCH_4_.latch_D data_in vgnd vpwr scs8hd_diode_2
XFILLER_1_94 vpwr vgnd scs8hd_fill_2
XANTENNA_mem_bottom_ipin_3.LATCH_2_.latch_D data_in vgnd vpwr scs8hd_diode_2
XFILLER_29_35 vpwr vgnd scs8hd_fill_2
XANTENNA_mem_bottom_ipin_4.LATCH_0_.latch_D data_in vgnd vpwr scs8hd_diode_2
Xmux_bottom_ipin_7.mux_l1_in_1_.TGATE_0_.scs8hd_ebufn_2 mux_bottom_ipin_7.INVTX1_3_.scs8hd_inv_1/Y
+ mem_bottom_ipin_7.LATCH_0_.latch/Q mux_bottom_ipin_7.mux_l2_in_0_.TGATE_1_.scs8hd_ebufn_2/A
+ vgnd vpwr scs8hd_ebufn_2
XFILLER_19_100 vpwr vgnd scs8hd_fill_2
XFILLER_19_166 vgnd vpwr scs8hd_decap_4
XFILLER_19_177 vgnd vpwr scs8hd_decap_6
XFILLER_15_15 vgnd vpwr scs8hd_fill_1
XANTENNA_mux_bottom_ipin_2.INVTX1_5_.scs8hd_inv_1_A chanx_right_in[6] vgnd vpwr scs8hd_diode_2
XANTENNA__083__B _091_/B vgnd vpwr scs8hd_diode_2
XPHY_164 vgnd vpwr scs8hd_tapvpwrvgnd_1
XPHY_153 vgnd vpwr scs8hd_tapvpwrvgnd_1
XPHY_142 vgnd vpwr scs8hd_tapvpwrvgnd_1
XPHY_120 vgnd vpwr scs8hd_tapvpwrvgnd_1
XPHY_131 vgnd vpwr scs8hd_tapvpwrvgnd_1
XFILLER_21_80 vgnd vpwr scs8hd_decap_4
XPHY_0 vgnd vpwr scs8hd_decap_3
XFILLER_15_180 vgnd vpwr scs8hd_fill_1
XFILLER_22_117 vpwr vgnd scs8hd_fill_2
XANTENNA__078__B _081_/B vgnd vpwr scs8hd_diode_2
XANTENNA__094__A _127_/A vgnd vpwr scs8hd_diode_2
XFILLER_13_139 vpwr vgnd scs8hd_fill_2
XFILLER_3_18 vgnd vpwr scs8hd_decap_3
XANTENNA_mux_bottom_ipin_0.mux_l1_in_1_.TGATE_2_.scs8hd_ebufn_2_A mux_bottom_ipin_0.INVTX1_5_.scs8hd_inv_1/Y
+ vgnd vpwr scs8hd_diode_2
XANTENNA_mem_bottom_ipin_7.LATCH_4_.latch_D data_in vgnd vpwr scs8hd_diode_2
XANTENNA_mem_bottom_ipin_5.LATCH_5_.latch_SLEEPB _077_/Y vgnd vpwr scs8hd_diode_2
XFILLER_10_109 vgnd vpwr scs8hd_fill_1
XFILLER_12_16 vpwr vgnd scs8hd_fill_2
XFILLER_12_27 vpwr vgnd scs8hd_fill_2
XFILLER_12_38 vpwr vgnd scs8hd_fill_2
XANTENNA__089__A _089_/A vgnd vpwr scs8hd_diode_2
XFILLER_18_209 vgnd vpwr scs8hd_decap_3
XFILLER_5_157 vpwr vgnd scs8hd_fill_2
XFILLER_27_90 vgnd vpwr scs8hd_decap_3
XFILLER_4_83 vpwr vgnd scs8hd_fill_2
XANTENNA__075__C _091_/C vgnd vpwr scs8hd_diode_2
Xmux_bottom_ipin_5.INVTX1_1_.scs8hd_inv_1 chanx_right_in[0] mux_bottom_ipin_5.INVTX1_1_.scs8hd_inv_1/Y
+ vgnd vpwr scs8hd_inv_1
XFILLER_23_26 vpwr vgnd scs8hd_fill_2
XANTENNA__091__B _091_/B vgnd vpwr scs8hd_diode_2
XFILLER_2_149 vpwr vgnd scs8hd_fill_2
XFILLER_9_28 vpwr vgnd scs8hd_fill_2
XFILLER_13_92 vgnd vpwr scs8hd_fill_1
XANTENNA_mux_bottom_ipin_7.mux_l1_in_1_.TGATE_1_.scs8hd_ebufn_2_A mux_bottom_ipin_7.INVTX1_4_.scs8hd_inv_1/Y
+ vgnd vpwr scs8hd_diode_2
XFILLER_1_193 vpwr vgnd scs8hd_fill_2
XFILLER_18_15 vpwr vgnd scs8hd_fill_2
XANTENNA__086__B _088_/B vgnd vpwr scs8hd_diode_2
Xmux_bottom_ipin_6.INVTX1_5_.scs8hd_inv_1 chanx_right_in[6] mux_bottom_ipin_6.INVTX1_5_.scs8hd_inv_1/Y
+ vgnd vpwr scs8hd_inv_1
XFILLER_11_204 vpwr vgnd scs8hd_fill_2
Xmem_bottom_ipin_2.LATCH_2_.latch data_in mem_bottom_ipin_2.LATCH_2_.latch/Q _128_/Y
+ vgnd vpwr scs8hd_lpflow_inputisolatch_1
XANTENNA_mux_bottom_ipin_6.mux_l1_in_0_.TGATE_2_.scs8hd_ebufn_2_TEB mem_bottom_ipin_6.LATCH_2_.latch/Q
+ vgnd vpwr scs8hd_diode_2
XANTENNA_mux_top_ipin_0.mux_l1_in_0_.TGATE_0_.scs8hd_ebufn_2_TEB mem_top_ipin_0.LATCH_0_.latch/Q
+ vgnd vpwr scs8hd_diode_2
XANTENNA_mux_top_ipin_0.INVTX1_4_.scs8hd_inv_1_A chanx_left_in[8] vgnd vpwr scs8hd_diode_2
XFILLER_27_3 vpwr vgnd scs8hd_fill_2
X_099_ _091_/A address[4] address[3] _108_/B _102_/B vgnd vpwr scs8hd_or4_4
XFILLER_1_40 vpwr vgnd scs8hd_fill_2
XFILLER_1_62 vpwr vgnd scs8hd_fill_2
XANTENNA_mux_bottom_ipin_1.mux_l2_in_0_.TGATE_2_.scs8hd_ebufn_2_A _132_/HI vgnd vpwr
+ scs8hd_diode_2
XANTENNA_mux_bottom_ipin_0.INVTX1_2_.scs8hd_inv_1_A chanx_left_in[4] vgnd vpwr scs8hd_diode_2
Xmem_bottom_ipin_4.LATCH_5_.latch data_in mem_bottom_ipin_4.LATCH_5_.latch/Q _069_/Y
+ vgnd vpwr scs8hd_lpflow_inputisolatch_1
XANTENNA__097__A _090_/A vgnd vpwr scs8hd_diode_2
Xmux_top_ipin_0.mux_l2_in_0_.TGATE_0_.scs8hd_ebufn_2 mux_top_ipin_0.mux_l1_in_0_.TGATE_0_.scs8hd_ebufn_2/Z
+ mem_top_ipin_0.LATCH_3_.latch/Q mux_top_ipin_0.tap_buf4_0_.scs8hd_inv_1/A vgnd vpwr
+ scs8hd_ebufn_2
XFILLER_10_93 vgnd vpwr scs8hd_fill_1
XANTENNA_mux_bottom_ipin_4.INVTX1_3_.scs8hd_inv_1_A chanx_right_in[4] vgnd vpwr scs8hd_diode_2
XANTENNA_mux_bottom_ipin_1.mux_l1_in_0_.TGATE_2_.scs8hd_ebufn_2_TEB mem_bottom_ipin_1.LATCH_2_.latch/Q
+ vgnd vpwr scs8hd_diode_2
XFILLER_25_159 vpwr vgnd scs8hd_fill_2
XFILLER_25_148 vgnd vpwr scs8hd_decap_4
XFILLER_25_104 vpwr vgnd scs8hd_fill_2
XANTENNA__083__C address[3] vgnd vpwr scs8hd_diode_2
XFILLER_16_126 vpwr vgnd scs8hd_fill_2
XPHY_165 vgnd vpwr scs8hd_tapvpwrvgnd_1
XPHY_154 vgnd vpwr scs8hd_tapvpwrvgnd_1
XPHY_143 vgnd vpwr scs8hd_tapvpwrvgnd_1
XPHY_110 vgnd vpwr scs8hd_tapvpwrvgnd_1
XPHY_121 vgnd vpwr scs8hd_tapvpwrvgnd_1
XPHY_132 vgnd vpwr scs8hd_tapvpwrvgnd_1
XPHY_1 vgnd vpwr scs8hd_decap_3
XFILLER_30_151 vpwr vgnd scs8hd_fill_2
XANTENNA_mux_bottom_ipin_4.mux_l1_in_1_.TGATE_2_.scs8hd_ebufn_2_TEB mem_bottom_ipin_4.LATCH_2_.latch/Q
+ vgnd vpwr scs8hd_diode_2
XFILLER_26_37 vpwr vgnd scs8hd_fill_2
XANTENNA__094__B _093_/B vgnd vpwr scs8hd_diode_2
XFILLER_13_107 vpwr vgnd scs8hd_fill_2
XFILLER_21_173 vgnd vpwr scs8hd_decap_8
XFILLER_8_144 vpwr vgnd scs8hd_fill_2
XFILLER_12_195 vgnd vpwr scs8hd_decap_4
XANTENNA_mux_bottom_ipin_4.mux_l1_in_0_.TGATE_1_.scs8hd_ebufn_2_A mux_bottom_ipin_4.INVTX1_1_.scs8hd_inv_1/Y
+ vgnd vpwr scs8hd_diode_2
XANTENNA__089__B _088_/B vgnd vpwr scs8hd_diode_2
XFILLER_5_136 vpwr vgnd scs8hd_fill_2
XFILLER_4_180 vgnd vpwr scs8hd_decap_8
XFILLER_4_62 vpwr vgnd scs8hd_fill_2
Xmux_bottom_ipin_6.mux_l1_in_1_.TGATE_0_.scs8hd_ebufn_2 mux_bottom_ipin_6.INVTX1_3_.scs8hd_inv_1/Y
+ mem_bottom_ipin_6.LATCH_0_.latch/Q mux_bottom_ipin_6.mux_l2_in_0_.TGATE_1_.scs8hd_ebufn_2/A
+ vgnd vpwr scs8hd_ebufn_2
XANTENNA__091__C _091_/C vgnd vpwr scs8hd_diode_2
XFILLER_2_106 vpwr vgnd scs8hd_fill_2
XFILLER_13_71 vpwr vgnd scs8hd_fill_2
XANTENNA_mux_bottom_ipin_3.mux_l1_in_0_.TGATE_1_.scs8hd_ebufn_2_TEB mem_bottom_ipin_3.LATCH_1_.latch/Q
+ vgnd vpwr scs8hd_diode_2
Xmem_bottom_ipin_5.LATCH_1_.latch data_in mem_bottom_ipin_5.LATCH_1_.latch/Q _081_/Y
+ vgnd vpwr scs8hd_lpflow_inputisolatch_1
Xmux_top_ipin_0.mux_l1_in_1_.TGATE_1_.scs8hd_ebufn_2 mux_top_ipin_0.INVTX1_4_.scs8hd_inv_1/Y
+ mem_top_ipin_0.LATCH_1_.latch/Q mux_top_ipin_0.mux_l1_in_1_.TGATE_1_.scs8hd_ebufn_2/Z
+ vgnd vpwr scs8hd_ebufn_2
Xmux_bottom_ipin_3.INVTX1_1_.scs8hd_inv_1 chanx_right_in[2] mux_bottom_ipin_3.INVTX1_1_.scs8hd_inv_1/Y
+ vgnd vpwr scs8hd_inv_1
XANTENNA_mem_bottom_ipin_4.LATCH_0_.latch_SLEEPB _074_/Y vgnd vpwr scs8hd_diode_2
XANTENNA_mux_bottom_ipin_2.INVTX1_0_.scs8hd_inv_1_A chanx_left_in[1] vgnd vpwr scs8hd_diode_2
XFILLER_24_81 vgnd vpwr scs8hd_decap_8
XFILLER_24_70 vpwr vgnd scs8hd_fill_2
X_098_ address[5] _098_/B _108_/B vgnd vpwr scs8hd_or2_4
Xmem_bottom_ipin_7.LATCH_4_.latch data_in mem_bottom_ipin_7.LATCH_4_.latch/Q _093_/Y
+ vgnd vpwr scs8hd_lpflow_inputisolatch_1
Xmux_top_ipin_2.INVTX1_1_.scs8hd_inv_1 chanx_right_in[1] mux_top_ipin_2.INVTX1_1_.scs8hd_inv_1/Y
+ vgnd vpwr scs8hd_inv_1
XANTENNA_mux_bottom_ipin_6.mux_l1_in_1_.TGATE_1_.scs8hd_ebufn_2_TEB mem_bottom_ipin_6.LATCH_1_.latch/Q
+ vgnd vpwr scs8hd_diode_2