* NGSPICE file created from cbx_1__1_.ext - technology: EFS8A

* Black-box entry subcircuit for scs8hd_fill_2 abstract view
.subckt scs8hd_fill_2 vpwr vgnd
.ends

* Black-box entry subcircuit for scs8hd_fill_1 abstract view
.subckt scs8hd_fill_1 vgnd vpwr
.ends

* Black-box entry subcircuit for scs8hd_decap_12 abstract view
.subckt scs8hd_decap_12 vgnd vpwr
.ends

* Black-box entry subcircuit for scs8hd_lpflow_inputisolatch_1 abstract view
.subckt scs8hd_lpflow_inputisolatch_1 D Q SLEEPB vgnd vpwr
.ends

* Black-box entry subcircuit for scs8hd_diode_2 abstract view
.subckt scs8hd_diode_2 DIODE vgnd vpwr
.ends

* Black-box entry subcircuit for scs8hd_nor4_4 abstract view
.subckt scs8hd_nor4_4 A B C D Y vgnd vpwr
.ends

* Black-box entry subcircuit for scs8hd_decap_4 abstract view
.subckt scs8hd_decap_4 vgnd vpwr
.ends

* Black-box entry subcircuit for scs8hd_decap_6 abstract view
.subckt scs8hd_decap_6 vgnd vpwr
.ends

* Black-box entry subcircuit for scs8hd_buf_1 abstract view
.subckt scs8hd_buf_1 A X vgnd vpwr
.ends

* Black-box entry subcircuit for scs8hd_buf_2 abstract view
.subckt scs8hd_buf_2 A X vgnd vpwr
.ends

* Black-box entry subcircuit for scs8hd_ebufn_2 abstract view
.subckt scs8hd_ebufn_2 A TEB Z vgnd vpwr
.ends

* Black-box entry subcircuit for scs8hd_decap_8 abstract view
.subckt scs8hd_decap_8 vgnd vpwr
.ends

* Black-box entry subcircuit for scs8hd_decap_3 abstract view
.subckt scs8hd_decap_3 vgnd vpwr
.ends

* Black-box entry subcircuit for scs8hd_inv_1 abstract view
.subckt scs8hd_inv_1 A Y vgnd vpwr
.ends

* Black-box entry subcircuit for scs8hd_tapvpwrvgnd_1 abstract view
.subckt scs8hd_tapvpwrvgnd_1 vgnd vpwr
.ends

* Black-box entry subcircuit for scs8hd_or4_4 abstract view
.subckt scs8hd_or4_4 A B C D X vgnd vpwr
.ends

* Black-box entry subcircuit for scs8hd_inv_8 abstract view
.subckt scs8hd_inv_8 A Y vgnd vpwr
.ends

* Black-box entry subcircuit for scs8hd_conb_1 abstract view
.subckt scs8hd_conb_1 HI LO vgnd vpwr
.ends

* Black-box entry subcircuit for scs8hd_or2_4 abstract view
.subckt scs8hd_or2_4 A B X vgnd vpwr
.ends

.subckt cbx_1__1_ address[0] address[1] address[2] address[3] address[4] address[5]
+ bottom_grid_pin_0_ bottom_grid_pin_4_ bottom_grid_pin_8_ chanx_left_in[0] chanx_left_in[1]
+ chanx_left_in[2] chanx_left_in[3] chanx_left_in[4] chanx_left_in[5] chanx_left_in[6]
+ chanx_left_in[7] chanx_left_in[8] chanx_left_out[0] chanx_left_out[1] chanx_left_out[2]
+ chanx_left_out[3] chanx_left_out[4] chanx_left_out[5] chanx_left_out[6] chanx_left_out[7]
+ chanx_left_out[8] chanx_right_in[0] chanx_right_in[1] chanx_right_in[2] chanx_right_in[3]
+ chanx_right_in[4] chanx_right_in[5] chanx_right_in[6] chanx_right_in[7] chanx_right_in[8]
+ chanx_right_out[0] chanx_right_out[1] chanx_right_out[2] chanx_right_out[3] chanx_right_out[4]
+ chanx_right_out[5] chanx_right_out[6] chanx_right_out[7] chanx_right_out[8] data_in
+ enable top_grid_pin_14_ top_grid_pin_2_ top_grid_pin_6_ vpwr vgnd
XFILLER_7_7 vpwr vgnd scs8hd_fill_2
XFILLER_18_406 vgnd vpwr scs8hd_fill_1
XFILLER_3_56 vpwr vgnd scs8hd_fill_2
XFILLER_5_354 vgnd vpwr scs8hd_decap_12
XFILLER_3_67 vpwr vgnd scs8hd_fill_2
Xmem_bottom_ipin_2.LATCH_1_.latch data_in mem_bottom_ipin_2.LATCH_1_.latch/Q _062_/Y
+ vgnd vpwr scs8hd_lpflow_inputisolatch_1
XFILLER_6_129 vgnd vpwr scs8hd_fill_1
XFILLER_12_32 vgnd vpwr scs8hd_decap_12
XFILLER_2_346 vpwr vgnd scs8hd_fill_2
XFILLER_5_140 vpwr vgnd scs8hd_fill_2
XFILLER_5_195 vpwr vgnd scs8hd_fill_2
XANTENNA_mux_bottom_ipin_1.mux_l1_in_0_.TGATE_1_.scs8hd_ebufn_2_TEB _087_/Y vgnd vpwr
+ scs8hd_diode_2
X_062_ _074_/A _074_/B _040_/X _058_/D _062_/Y vgnd vpwr scs8hd_nor4_4
XANTENNA_mem_top_ipin_0.LATCH_3_.latch_D data_in vgnd vpwr scs8hd_diode_2
XFILLER_9_11 vgnd vpwr scs8hd_decap_4
XFILLER_9_55 vgnd vpwr scs8hd_decap_6
XANTENNA_mem_top_ipin_1.LATCH_1_.latch_D data_in vgnd vpwr scs8hd_diode_2
XFILLER_20_242 vgnd vpwr scs8hd_decap_6
XFILLER_11_220 vgnd vpwr scs8hd_decap_12
X_045_ address[0] _059_/C vgnd vpwr scs8hd_buf_1
X_114_ chanx_left_in[1] chanx_right_out[1] vgnd vpwr scs8hd_buf_2
XFILLER_19_342 vgnd vpwr scs8hd_decap_12
XANTENNA_mux_top_ipin_2.INVTX1_1_.scs8hd_inv_1_A chanx_right_in[5] vgnd vpwr scs8hd_diode_2
Xmux_top_ipin_0.mux_l1_in_1_.TGATE_0_.scs8hd_ebufn_2 mux_top_ipin_0.INVTX1_3_.scs8hd_inv_1/Y
+ mem_top_ipin_0.LATCH_0_.latch/Q mux_top_ipin_0.mux_l1_in_1_.TGATE_0_.scs8hd_ebufn_2/Z
+ vgnd vpwr scs8hd_ebufn_2
XFILLER_20_32 vgnd vpwr scs8hd_decap_12
XFILLER_20_87 vgnd vpwr scs8hd_decap_6
XFILLER_16_312 vgnd vpwr scs8hd_decap_12
XFILLER_16_389 vgnd vpwr scs8hd_decap_8
XFILLER_6_23 vpwr vgnd scs8hd_fill_2
XFILLER_3_260 vpwr vgnd scs8hd_fill_2
XFILLER_3_271 vgnd vpwr scs8hd_decap_3
XANTENNA_mux_top_ipin_0.mux_l1_in_0_.TGATE_2_.scs8hd_ebufn_2_A mux_top_ipin_0.INVTX1_2_.scs8hd_inv_1/Y
+ vgnd vpwr scs8hd_diode_2
Xmux_bottom_ipin_0.mux_l2_in_0_.TGATE_2_.scs8hd_ebufn_2 _092_/HI mem_bottom_ipin_0.LATCH_5_.latch/Q
+ mux_bottom_ipin_0.tap_buf4_0_.scs8hd_inv_1/A vgnd vpwr scs8hd_ebufn_2
XFILLER_13_3 vpwr vgnd scs8hd_fill_2
XANTENNA__042__A address[4] vgnd vpwr scs8hd_diode_2
Xmux_bottom_ipin_0.INVTX1_3_.scs8hd_inv_1 chanx_right_in[4] mux_bottom_ipin_0.INVTX1_3_.scs8hd_inv_1/Y
+ vgnd vpwr scs8hd_inv_1
XFILLER_15_43 vgnd vpwr scs8hd_decap_12
XFILLER_15_98 vgnd vpwr scs8hd_decap_12
XFILLER_0_274 vpwr vgnd scs8hd_fill_2
XPHY_170 vgnd vpwr scs8hd_tapvpwrvgnd_1
XPHY_181 vgnd vpwr scs8hd_tapvpwrvgnd_1
XANTENNA__037__A address[1] vgnd vpwr scs8hd_diode_2
XFILLER_13_123 vgnd vpwr scs8hd_decap_12
XFILLER_3_35 vpwr vgnd scs8hd_fill_2
XFILLER_5_377 vpwr vgnd scs8hd_fill_2
XANTENNA_mux_top_ipin_0.mux_l2_in_0_.TGATE_0_.scs8hd_ebufn_2_A mux_top_ipin_0.mux_l1_in_0_.TGATE_0_.scs8hd_ebufn_2/Z
+ vgnd vpwr scs8hd_diode_2
XANTENNA_mux_bottom_ipin_1.mux_l1_in_0_.TGATE_1_.scs8hd_ebufn_2_A mux_bottom_ipin_1.INVTX1_1_.scs8hd_inv_1/Y
+ vgnd vpwr scs8hd_diode_2
XFILLER_8_193 vpwr vgnd scs8hd_fill_2
XFILLER_12_44 vgnd vpwr scs8hd_decap_12
XFILLER_18_215 vgnd vpwr scs8hd_decap_12
XFILLER_5_163 vpwr vgnd scs8hd_fill_2
XFILLER_5_174 vpwr vgnd scs8hd_fill_2
XFILLER_1_391 vgnd vpwr scs8hd_decap_12
XFILLER_17_281 vgnd vpwr scs8hd_decap_12
Xmux_top_ipin_0.tap_buf4_0_.scs8hd_inv_1 mux_top_ipin_0.tap_buf4_0_.scs8hd_inv_1/A
+ bottom_grid_pin_0_ vgnd vpwr scs8hd_inv_1
XANTENNA__050__A _071_/A vgnd vpwr scs8hd_diode_2
X_061_ address[2] _074_/B vgnd vpwr scs8hd_buf_1
XFILLER_2_122 vgnd vpwr scs8hd_fill_1
XFILLER_2_100 vgnd vpwr scs8hd_decap_6
XFILLER_2_199 vpwr vgnd scs8hd_fill_2
XFILLER_2_133 vgnd vpwr scs8hd_decap_3
XFILLER_0_47 vgnd vpwr scs8hd_decap_12
XFILLER_9_34 vpwr vgnd scs8hd_fill_2
XFILLER_14_251 vgnd vpwr scs8hd_decap_12
XANTENNA__045__A address[0] vgnd vpwr scs8hd_diode_2
XFILLER_18_32 vgnd vpwr scs8hd_decap_12
XFILLER_7_225 vpwr vgnd scs8hd_fill_2
XFILLER_7_236 vpwr vgnd scs8hd_fill_2
XFILLER_11_232 vgnd vpwr scs8hd_decap_12
X_113_ chanx_left_in[2] chanx_right_out[2] vgnd vpwr scs8hd_buf_2
X_044_ _046_/A _046_/B _040_/X _046_/D _044_/Y vgnd vpwr scs8hd_nor4_4
XFILLER_7_269 vgnd vpwr scs8hd_decap_12
XFILLER_19_354 vgnd vpwr scs8hd_decap_12
XFILLER_15_7 vgnd vpwr scs8hd_decap_12
XFILLER_4_206 vpwr vgnd scs8hd_fill_2
XFILLER_20_44 vgnd vpwr scs8hd_decap_12
XFILLER_16_324 vgnd vpwr scs8hd_decap_12
XFILLER_19_184 vgnd vpwr scs8hd_decap_12
XFILLER_1_209 vpwr vgnd scs8hd_fill_2
XANTENNA__042__B address[5] vgnd vpwr scs8hd_diode_2
XANTENNA_mem_bottom_ipin_0.LATCH_5_.latch_D data_in vgnd vpwr scs8hd_diode_2
XFILLER_15_55 vgnd vpwr scs8hd_decap_6
XFILLER_16_154 vgnd vpwr scs8hd_decap_12
XPHY_160 vgnd vpwr scs8hd_tapvpwrvgnd_1
XPHY_171 vgnd vpwr scs8hd_tapvpwrvgnd_1
XPHY_182 vgnd vpwr scs8hd_tapvpwrvgnd_1
XANTENNA_mem_bottom_ipin_2.LATCH_1_.latch_D data_in vgnd vpwr scs8hd_diode_2
XANTENNA__053__A address[4] vgnd vpwr scs8hd_diode_2
Xmem_top_ipin_0.LATCH_4_.latch data_in mem_top_ipin_0.LATCH_4_.latch/Q _070_/Y vgnd
+ vpwr scs8hd_lpflow_inputisolatch_1
XFILLER_9_106 vgnd vpwr scs8hd_decap_12
XFILLER_13_135 vgnd vpwr scs8hd_decap_12
XFILLER_5_367 vgnd vpwr scs8hd_decap_6
XFILLER_12_190 vgnd vpwr scs8hd_decap_12
XANTENNA__048__A address[2] vgnd vpwr scs8hd_diode_2
XFILLER_2_304 vpwr vgnd scs8hd_fill_2
XFILLER_10_149 vgnd vpwr scs8hd_decap_4
XFILLER_12_56 vgnd vpwr scs8hd_decap_12
XFILLER_2_315 vpwr vgnd scs8hd_fill_2
Xmux_bottom_ipin_2.mux_l1_in_0_.TGATE_2_.scs8hd_ebufn_2 mux_bottom_ipin_2.INVTX1_2_.scs8hd_inv_1/Y
+ mem_bottom_ipin_2.LATCH_2_.latch/Q mux_bottom_ipin_2.mux_l1_in_0_.TGATE_1_.scs8hd_ebufn_2/Z
+ vgnd vpwr scs8hd_ebufn_2
XFILLER_18_227 vgnd vpwr scs8hd_decap_12
XANTENNA_mux_top_ipin_1.mux_l2_in_0_.TGATE_1_.scs8hd_ebufn_2_TEB _088_/Y vgnd vpwr
+ scs8hd_diode_2
XFILLER_17_293 vgnd vpwr scs8hd_decap_12
XANTENNA__050__B _058_/B vgnd vpwr scs8hd_diode_2
XFILLER_15_208 vgnd vpwr scs8hd_decap_12
XFILLER_3_3 vgnd vpwr scs8hd_decap_4
XFILLER_2_145 vpwr vgnd scs8hd_fill_2
X_060_ address[1] _074_/A vgnd vpwr scs8hd_buf_1
XFILLER_2_167 vpwr vgnd scs8hd_fill_2
XFILLER_0_59 vgnd vpwr scs8hd_decap_3
XFILLER_14_263 vgnd vpwr scs8hd_decap_12
XFILLER_20_211 vgnd vpwr scs8hd_decap_6
XANTENNA__061__A address[2] vgnd vpwr scs8hd_diode_2
Xmem_bottom_ipin_0.LATCH_4_.latch data_in mem_bottom_ipin_0.LATCH_4_.latch/Q _046_/Y
+ vgnd vpwr scs8hd_lpflow_inputisolatch_1
XANTENNA_mux_top_ipin_0.mux_l1_in_1_.TGATE_0_.scs8hd_ebufn_2_A mux_top_ipin_0.INVTX1_3_.scs8hd_inv_1/Y
+ vgnd vpwr scs8hd_diode_2
XFILLER_18_44 vgnd vpwr scs8hd_decap_12
X_043_ _043_/A _046_/D vgnd vpwr scs8hd_buf_1
X_112_ chanx_left_in[3] chanx_right_out[3] vgnd vpwr scs8hd_buf_2
XANTENNA__056__A _046_/A vgnd vpwr scs8hd_diode_2
XFILLER_4_218 vpwr vgnd scs8hd_fill_2
XFILLER_20_56 vgnd vpwr scs8hd_decap_6
XFILLER_3_295 vgnd vpwr scs8hd_decap_8
Xmem_top_ipin_1.LATCH_0_.latch data_in _089_/A _083_/Y vgnd vpwr scs8hd_lpflow_inputisolatch_1
XFILLER_19_196 vgnd vpwr scs8hd_decap_12
XANTENNA__042__C address[3] vgnd vpwr scs8hd_diode_2
XFILLER_13_306 vgnd vpwr scs8hd_decap_12
XFILLER_16_166 vgnd vpwr scs8hd_decap_12
XFILLER_12_361 vgnd vpwr scs8hd_decap_12
XPHY_150 vgnd vpwr scs8hd_tapvpwrvgnd_1
XPHY_161 vgnd vpwr scs8hd_tapvpwrvgnd_1
XPHY_172 vgnd vpwr scs8hd_tapvpwrvgnd_1
XPHY_183 vgnd vpwr scs8hd_tapvpwrvgnd_1
XFILLER_8_398 vgnd vpwr scs8hd_decap_8
XFILLER_9_118 vgnd vpwr scs8hd_decap_4
XFILLER_13_147 vgnd vpwr scs8hd_decap_12
XFILLER_3_48 vpwr vgnd scs8hd_fill_2
XANTENNA_mux_top_ipin_1.mux_l2_in_0_.TGATE_0_.scs8hd_ebufn_2_A mux_top_ipin_1.mux_l2_in_0_.TGATE_0_.scs8hd_ebufn_2/A
+ vgnd vpwr scs8hd_diode_2
XANTENNA_mux_bottom_ipin_2.mux_l1_in_0_.TGATE_1_.scs8hd_ebufn_2_A mux_bottom_ipin_2.INVTX1_1_.scs8hd_inv_1/Y
+ vgnd vpwr scs8hd_diode_2
XANTENNA__064__A _040_/A vgnd vpwr scs8hd_diode_2
XFILLER_5_7 vpwr vgnd scs8hd_fill_2
XFILLER_12_68 vgnd vpwr scs8hd_decap_12
XFILLER_18_239 vgnd vpwr scs8hd_decap_12
Xmem_bottom_ipin_1.LATCH_0_.latch data_in _087_/A _079_/Y vgnd vpwr scs8hd_lpflow_inputisolatch_1
XFILLER_20_404 vgnd vpwr scs8hd_decap_3
XANTENNA__050__C _059_/C vgnd vpwr scs8hd_diode_2
XANTENNA__059__A _071_/A vgnd vpwr scs8hd_diode_2
XFILLER_0_16 vgnd vpwr scs8hd_fill_1
XFILLER_0_27 vgnd vpwr scs8hd_decap_4
XFILLER_9_47 vpwr vgnd scs8hd_fill_2
Xmux_top_ipin_2.mux_l2_in_0_.TGATE_0_.scs8hd_ebufn_2 mux_top_ipin_2.mux_l1_in_0_.TGATE_0_.scs8hd_ebufn_2/Z
+ _090_/A mux_top_ipin_2.tap_buf4_0_.scs8hd_inv_1/A vgnd vpwr scs8hd_ebufn_2
Xmux_bottom_ipin_2.INVTX1_0_.scs8hd_inv_1 chanx_left_in[1] mux_bottom_ipin_2.INVTX1_0_.scs8hd_inv_1/Y
+ vgnd vpwr scs8hd_inv_1
XFILLER_18_56 vgnd vpwr scs8hd_decap_12
X_042_ address[4] address[5] address[3] _081_/B _043_/A vgnd vpwr scs8hd_or4_4
Xmux_top_ipin_1.INVTX1_0_.scs8hd_inv_1 chanx_left_in[4] mux_top_ipin_1.INVTX1_0_.scs8hd_inv_1/Y
+ vgnd vpwr scs8hd_inv_1
XFILLER_11_245 vgnd vpwr scs8hd_decap_12
X_111_ chanx_left_in[4] chanx_right_out[4] vgnd vpwr scs8hd_buf_2
XFILLER_19_367 vgnd vpwr scs8hd_decap_12
XFILLER_6_293 vgnd vpwr scs8hd_decap_12
XFILLER_1_92 vpwr vgnd scs8hd_fill_2
XANTENNA__056__B _046_/B vgnd vpwr scs8hd_diode_2
XANTENNA__072__A _071_/A vgnd vpwr scs8hd_diode_2
XFILLER_16_337 vgnd vpwr scs8hd_decap_12
XANTENNA__042__D _081_/B vgnd vpwr scs8hd_diode_2
XANTENNA__067__A _067_/A vgnd vpwr scs8hd_diode_2
XFILLER_13_318 vgnd vpwr scs8hd_decap_12
XFILLER_0_266 vpwr vgnd scs8hd_fill_2
XFILLER_0_244 vpwr vgnd scs8hd_fill_2
XFILLER_16_178 vgnd vpwr scs8hd_decap_12
XFILLER_8_300 vgnd vpwr scs8hd_decap_12
XFILLER_8_377 vgnd vpwr scs8hd_decap_12
XPHY_140 vgnd vpwr scs8hd_tapvpwrvgnd_1
XPHY_151 vgnd vpwr scs8hd_tapvpwrvgnd_1
XPHY_162 vgnd vpwr scs8hd_tapvpwrvgnd_1
XPHY_173 vgnd vpwr scs8hd_tapvpwrvgnd_1
XPHY_184 vgnd vpwr scs8hd_tapvpwrvgnd_1
XANTENNA_mux_bottom_ipin_1.mux_l2_in_0_.TGATE_1_.scs8hd_ebufn_2_TEB _086_/Y vgnd vpwr
+ scs8hd_diode_2
XFILLER_5_303 vpwr vgnd scs8hd_fill_2
XFILLER_13_159 vgnd vpwr scs8hd_decap_12
XFILLER_8_163 vgnd vpwr scs8hd_decap_8
XFILLER_8_174 vgnd vpwr scs8hd_decap_12
XFILLER_2_328 vgnd vpwr scs8hd_decap_8
XANTENNA__080__A address[5] vgnd vpwr scs8hd_diode_2
XANTENNA_mem_bottom_ipin_2.LATCH_4_.latch_SLEEPB _057_/Y vgnd vpwr scs8hd_diode_2
XFILLER_5_144 vpwr vgnd scs8hd_fill_2
XFILLER_5_199 vpwr vgnd scs8hd_fill_2
XANTENNA__050__D _046_/D vgnd vpwr scs8hd_diode_2
XANTENNA__059__B _058_/B vgnd vpwr scs8hd_diode_2
XFILLER_11_405 vpwr vgnd scs8hd_fill_2
XANTENNA__075__A address[4] vgnd vpwr scs8hd_diode_2
XFILLER_2_125 vpwr vgnd scs8hd_fill_2
XFILLER_14_276 vgnd vpwr scs8hd_decap_12
XFILLER_1_180 vgnd vpwr scs8hd_decap_3
XANTENNA_mux_top_ipin_1.INVTX1_0_.scs8hd_inv_1_A chanx_left_in[4] vgnd vpwr scs8hd_diode_2
XFILLER_18_68 vgnd vpwr scs8hd_decap_12
X_110_ chanx_left_in[5] chanx_right_out[5] vgnd vpwr scs8hd_buf_2
XFILLER_11_257 vgnd vpwr scs8hd_decap_12
X_041_ enable _081_/B vgnd vpwr scs8hd_inv_8
XFILLER_19_379 vgnd vpwr scs8hd_decap_12
XANTENNA_mux_bottom_ipin_0.mux_l2_in_0_.TGATE_2_.scs8hd_ebufn_2_A _092_/HI vgnd vpwr
+ scs8hd_diode_2
XFILLER_1_71 vpwr vgnd scs8hd_fill_2
XANTENNA__056__C _040_/X vgnd vpwr scs8hd_diode_2
XANTENNA_mem_top_ipin_1.LATCH_1_.latch_SLEEPB _082_/Y vgnd vpwr scs8hd_diode_2
XANTENNA__072__B _074_/B vgnd vpwr scs8hd_diode_2
XFILLER_0_404 vgnd vpwr scs8hd_decap_3
XFILLER_16_349 vgnd vpwr scs8hd_decap_12
Xmux_bottom_ipin_0.INVTX1_0_.scs8hd_inv_1 chanx_left_in[0] mux_bottom_ipin_0.INVTX1_0_.scs8hd_inv_1/Y
+ vgnd vpwr scs8hd_inv_1
XFILLER_3_220 vpwr vgnd scs8hd_fill_2
XFILLER_3_231 vpwr vgnd scs8hd_fill_2
XFILLER_6_27 vpwr vgnd scs8hd_fill_2
XFILLER_13_7 vgnd vpwr scs8hd_decap_12
XFILLER_19_110 vgnd vpwr scs8hd_decap_12
XANTENNA_mem_bottom_ipin_0.LATCH_5_.latch_SLEEPB _044_/Y vgnd vpwr scs8hd_diode_2
XANTENNA__083__A _075_/X vgnd vpwr scs8hd_diode_2
XFILLER_0_278 vgnd vpwr scs8hd_fill_1
XPHY_130 vgnd vpwr scs8hd_tapvpwrvgnd_1
XPHY_141 vgnd vpwr scs8hd_tapvpwrvgnd_1
XPHY_152 vgnd vpwr scs8hd_tapvpwrvgnd_1
XFILLER_8_312 vgnd vpwr scs8hd_decap_12
XFILLER_8_389 vgnd vpwr scs8hd_decap_8
XPHY_163 vgnd vpwr scs8hd_tapvpwrvgnd_1
XPHY_174 vgnd vpwr scs8hd_tapvpwrvgnd_1
XPHY_185 vgnd vpwr scs8hd_tapvpwrvgnd_1
XANTENNA_mux_top_ipin_0.tap_buf4_0_.scs8hd_inv_1_A mux_top_ipin_0.tap_buf4_0_.scs8hd_inv_1/A
+ vgnd vpwr scs8hd_diode_2
Xmux_top_ipin_0.INVTX1_4_.scs8hd_inv_1 chanx_left_in[7] mux_top_ipin_0.INVTX1_4_.scs8hd_inv_1/Y
+ vgnd vpwr scs8hd_inv_1
XANTENNA__078__A _075_/X vgnd vpwr scs8hd_diode_2
XANTENNA_mux_top_ipin_2.mux_l2_in_0_.TGATE_0_.scs8hd_ebufn_2_A mux_top_ipin_2.mux_l1_in_0_.TGATE_0_.scs8hd_ebufn_2/Z
+ vgnd vpwr scs8hd_diode_2
Xmux_top_ipin_1.mux_l2_in_0_.TGATE_0_.scs8hd_ebufn_2 mux_top_ipin_1.mux_l2_in_0_.TGATE_0_.scs8hd_ebufn_2/A
+ _088_/A mux_top_ipin_1.tap_buf4_0_.scs8hd_inv_1/A vgnd vpwr scs8hd_ebufn_2
XFILLER_5_178 vgnd vpwr scs8hd_decap_3
XANTENNA__059__C _059_/C vgnd vpwr scs8hd_diode_2
XANTENNA__091__A _091_/A vgnd vpwr scs8hd_diode_2
XFILLER_14_288 vgnd vpwr scs8hd_decap_12
XFILLER_1_170 vgnd vpwr scs8hd_decap_4
Xmux_bottom_ipin_0.mux_l1_in_0_.TGATE_2_.scs8hd_ebufn_2 mux_bottom_ipin_0.INVTX1_2_.scs8hd_inv_1/Y
+ mem_bottom_ipin_0.LATCH_2_.latch/Q mux_bottom_ipin_0.mux_l1_in_0_.TGATE_1_.scs8hd_ebufn_2/Z
+ vgnd vpwr scs8hd_ebufn_2
XFILLER_9_281 vgnd vpwr scs8hd_decap_12
XFILLER_7_229 vpwr vgnd scs8hd_fill_2
XANTENNA__086__A _086_/A vgnd vpwr scs8hd_diode_2
XFILLER_11_269 vgnd vpwr scs8hd_decap_12
XFILLER_1_3 vgnd vpwr scs8hd_decap_3
X_040_ _040_/A _040_/X vgnd vpwr scs8hd_buf_1
XFILLER_6_262 vpwr vgnd scs8hd_fill_2
XANTENNA_mem_bottom_ipin_2.LATCH_4_.latch_D data_in vgnd vpwr scs8hd_diode_2
XANTENNA__056__D _058_/D vgnd vpwr scs8hd_diode_2
XANTENNA__072__C _074_/C vgnd vpwr scs8hd_diode_2
XFILLER_20_15 vgnd vpwr scs8hd_decap_12
XFILLER_3_287 vpwr vgnd scs8hd_fill_2
XANTENNA_mux_bottom_ipin_2.INVTX1_5_.scs8hd_inv_1_A chanx_right_in[6] vgnd vpwr scs8hd_diode_2
XANTENNA__083__B _080_/Y vgnd vpwr scs8hd_diode_2
XFILLER_0_213 vpwr vgnd scs8hd_fill_2
XFILLER_0_202 vpwr vgnd scs8hd_fill_2
XPHY_120 vgnd vpwr scs8hd_tapvpwrvgnd_1
XPHY_131 vgnd vpwr scs8hd_tapvpwrvgnd_1
XPHY_142 vgnd vpwr scs8hd_tapvpwrvgnd_1
XPHY_153 vgnd vpwr scs8hd_tapvpwrvgnd_1
XPHY_164 vgnd vpwr scs8hd_tapvpwrvgnd_1
XPHY_175 vgnd vpwr scs8hd_tapvpwrvgnd_1
XFILLER_8_324 vgnd vpwr scs8hd_decap_12
XPHY_186 vgnd vpwr scs8hd_tapvpwrvgnd_1
XPHY_0 vgnd vpwr scs8hd_decap_3
XFILLER_7_71 vgnd vpwr scs8hd_decap_12
XANTENNA__078__B address[5] vgnd vpwr scs8hd_diode_2
XANTENNA_mux_bottom_ipin_0.mux_l1_in_1_.TGATE_2_.scs8hd_ebufn_2_A mux_bottom_ipin_0.INVTX1_5_.scs8hd_inv_1/Y
+ vgnd vpwr scs8hd_diode_2
XFILLER_8_132 vpwr vgnd scs8hd_fill_2
XFILLER_16_80 vgnd vpwr scs8hd_decap_12
XFILLER_2_308 vgnd vpwr scs8hd_decap_4
XANTENNA__089__A _089_/A vgnd vpwr scs8hd_diode_2
XFILLER_17_220 vgnd vpwr scs8hd_decap_12
XFILLER_4_61 vgnd vpwr scs8hd_decap_8
XANTENNA__059__D _058_/D vgnd vpwr scs8hd_diode_2
XFILLER_3_7 vgnd vpwr scs8hd_fill_1
XFILLER_2_149 vpwr vgnd scs8hd_fill_2
XFILLER_0_19 vpwr vgnd scs8hd_fill_2
XFILLER_9_17 vpwr vgnd scs8hd_fill_2
XFILLER_9_293 vgnd vpwr scs8hd_decap_12
XFILLER_18_15 vgnd vpwr scs8hd_decap_12
Xmem_bottom_ipin_2.LATCH_2_.latch data_in mem_bottom_ipin_2.LATCH_2_.latch/Q _059_/Y
+ vgnd vpwr scs8hd_lpflow_inputisolatch_1
XFILLER_7_208 vpwr vgnd scs8hd_fill_2
XFILLER_3_403 vgnd vpwr scs8hd_decap_4
XANTENNA_mux_top_ipin_0.mux_l1_in_0_.TGATE_0_.scs8hd_ebufn_2_TEB mem_top_ipin_0.LATCH_0_.latch/Q
+ vgnd vpwr scs8hd_diode_2
XFILLER_6_230 vpwr vgnd scs8hd_fill_2
XFILLER_6_274 vgnd vpwr scs8hd_fill_1
XFILLER_6_285 vpwr vgnd scs8hd_fill_2
XANTENNA_mux_top_ipin_0.INVTX1_4_.scs8hd_inv_1_A chanx_left_in[7] vgnd vpwr scs8hd_diode_2
X_099_ chanx_right_in[7] chanx_left_out[7] vgnd vpwr scs8hd_buf_2
XFILLER_1_62 vpwr vgnd scs8hd_fill_2
XANTENNA_mux_bottom_ipin_0.INVTX1_2_.scs8hd_inv_1_A chanx_left_in[4] vgnd vpwr scs8hd_diode_2
XANTENNA__072__D _067_/X vgnd vpwr scs8hd_diode_2
XFILLER_20_27 vgnd vpwr scs8hd_decap_4
Xmux_top_ipin_0.mux_l2_in_0_.TGATE_0_.scs8hd_ebufn_2 mux_top_ipin_0.mux_l1_in_0_.TGATE_0_.scs8hd_ebufn_2/Z
+ mem_top_ipin_0.LATCH_3_.latch/Q mux_top_ipin_0.tap_buf4_0_.scs8hd_inv_1/A vgnd vpwr
+ scs8hd_ebufn_2
XFILLER_10_93 vpwr vgnd scs8hd_fill_2
XFILLER_19_123 vgnd vpwr scs8hd_decap_12
XANTENNA__083__C _081_/X vgnd vpwr scs8hd_diode_2
XPHY_110 vgnd vpwr scs8hd_tapvpwrvgnd_1
XPHY_121 vgnd vpwr scs8hd_tapvpwrvgnd_1
XPHY_132 vgnd vpwr scs8hd_tapvpwrvgnd_1
XPHY_143 vgnd vpwr scs8hd_tapvpwrvgnd_1
XPHY_154 vgnd vpwr scs8hd_tapvpwrvgnd_1
XPHY_165 vgnd vpwr scs8hd_tapvpwrvgnd_1
XPHY_176 vgnd vpwr scs8hd_tapvpwrvgnd_1
XPHY_187 vgnd vpwr scs8hd_tapvpwrvgnd_1
XFILLER_12_398 vgnd vpwr scs8hd_decap_8
XPHY_1 vgnd vpwr scs8hd_decap_3
XFILLER_7_94 vgnd vpwr scs8hd_decap_4
XANTENNA__078__C _078_/C vgnd vpwr scs8hd_diode_2
XFILLER_5_306 vgnd vpwr scs8hd_decap_12
XFILLER_4_361 vgnd vpwr scs8hd_decap_12
XFILLER_5_103 vpwr vgnd scs8hd_fill_2
XFILLER_1_353 vgnd vpwr scs8hd_decap_12
XFILLER_5_114 vpwr vgnd scs8hd_fill_2
XFILLER_17_232 vgnd vpwr scs8hd_decap_12
XFILLER_4_84 vpwr vgnd scs8hd_fill_2
XFILLER_2_106 vgnd vpwr scs8hd_fill_1
XFILLER_14_202 vgnd vpwr scs8hd_decap_12
XFILLER_20_249 vgnd vpwr scs8hd_decap_12
XFILLER_18_27 vgnd vpwr scs8hd_decap_4
Xmux_top_ipin_0.mux_l1_in_1_.TGATE_1_.scs8hd_ebufn_2 mux_top_ipin_0.INVTX1_4_.scs8hd_inv_1/Y
+ mem_top_ipin_0.LATCH_1_.latch/Q mux_top_ipin_0.mux_l1_in_1_.TGATE_0_.scs8hd_ebufn_2/Z
+ vgnd vpwr scs8hd_ebufn_2
XANTENNA_mux_bottom_ipin_2.INVTX1_0_.scs8hd_inv_1_A chanx_left_in[1] vgnd vpwr scs8hd_diode_2
X_098_ chanx_right_in[8] chanx_left_out[8] vgnd vpwr scs8hd_buf_2
Xmux_top_ipin_2.INVTX1_1_.scs8hd_inv_1 chanx_right_in[5] mux_top_ipin_2.INVTX1_1_.scs8hd_inv_1/Y
+ vgnd vpwr scs8hd_inv_1
XFILLER_1_96 vgnd vpwr scs8hd_decap_8
XANTENNA_mem_top_ipin_0.LATCH_4_.latch_SLEEPB _070_/Y vgnd vpwr scs8hd_diode_2
Xmux_bottom_ipin_1.tap_buf4_0_.scs8hd_inv_1 mux_bottom_ipin_1.tap_buf4_0_.scs8hd_inv_1/A
+ top_grid_pin_6_ vgnd vpwr scs8hd_inv_1
XFILLER_3_201 vpwr vgnd scs8hd_fill_2
XFILLER_3_256 vpwr vgnd scs8hd_fill_2
XFILLER_3_267 vpwr vgnd scs8hd_fill_2
XFILLER_15_330 vgnd vpwr scs8hd_decap_12
XFILLER_19_135 vgnd vpwr scs8hd_decap_12
XFILLER_18_190 vgnd vpwr scs8hd_decap_12
XANTENNA__083__D _074_/C vgnd vpwr scs8hd_diode_2
XPHY_100 vgnd vpwr scs8hd_tapvpwrvgnd_1
XFILLER_16_105 vgnd vpwr scs8hd_decap_12
XPHY_177 vgnd vpwr scs8hd_tapvpwrvgnd_1
XFILLER_8_337 vgnd vpwr scs8hd_decap_12
XPHY_111 vgnd vpwr scs8hd_tapvpwrvgnd_1
XPHY_122 vgnd vpwr scs8hd_tapvpwrvgnd_1
XFILLER_12_300 vgnd vpwr scs8hd_decap_12
XFILLER_12_377 vgnd vpwr scs8hd_decap_12
XPHY_133 vgnd vpwr scs8hd_tapvpwrvgnd_1
XPHY_144 vgnd vpwr scs8hd_tapvpwrvgnd_1
XPHY_155 vgnd vpwr scs8hd_tapvpwrvgnd_1
XPHY_166 vgnd vpwr scs8hd_tapvpwrvgnd_1
XPHY_188 vgnd vpwr scs8hd_tapvpwrvgnd_1
XFILLER_11_7 vpwr vgnd scs8hd_fill_2
XPHY_2 vgnd vpwr scs8hd_decap_3
XFILLER_15_171 vgnd vpwr scs8hd_decap_12
XFILLER_7_51 vpwr vgnd scs8hd_fill_2
XANTENNA__078__D _078_/D vgnd vpwr scs8hd_diode_2
XFILLER_5_318 vgnd vpwr scs8hd_decap_12
XFILLER_17_403 vgnd vpwr scs8hd_decap_4
XFILLER_16_93 vgnd vpwr scs8hd_decap_12
XFILLER_8_112 vgnd vpwr scs8hd_decap_12
XFILLER_8_145 vpwr vgnd scs8hd_fill_2
XFILLER_8_189 vpwr vgnd scs8hd_fill_2
XFILLER_12_141 vgnd vpwr scs8hd_decap_12
XFILLER_4_373 vgnd vpwr scs8hd_decap_12
Xmux_top_ipin_2.mux_l1_in_0_.TGATE_0_.scs8hd_ebufn_2 mux_top_ipin_2.INVTX1_0_.scs8hd_inv_1/Y
+ _091_/A mux_top_ipin_2.mux_l1_in_0_.TGATE_0_.scs8hd_ebufn_2/Z vgnd vpwr scs8hd_ebufn_2
XANTENNA_mem_bottom_ipin_2.LATCH_1_.latch_SLEEPB _062_/Y vgnd vpwr scs8hd_diode_2
XFILLER_12_18 vgnd vpwr scs8hd_decap_12
XFILLER_14_406 vgnd vpwr scs8hd_fill_1
XFILLER_1_365 vgnd vpwr scs8hd_fill_1
XFILLER_1_332 vgnd vpwr scs8hd_decap_4
XFILLER_1_321 vpwr vgnd scs8hd_fill_2
XFILLER_5_159 vpwr vgnd scs8hd_fill_2
XFILLER_4_181 vpwr vgnd scs8hd_fill_2
XANTENNA_mux_bottom_ipin_0.mux_l1_in_0_.TGATE_0_.scs8hd_ebufn_2_TEB mem_bottom_ipin_0.LATCH_0_.latch/Q
+ vgnd vpwr scs8hd_diode_2
XFILLER_2_129 vpwr vgnd scs8hd_fill_2
XFILLER_2_118 vgnd vpwr scs8hd_decap_4
Xmem_top_ipin_0.LATCH_5_.latch data_in mem_top_ipin_0.LATCH_5_.latch/Q _068_/Y vgnd
+ vpwr scs8hd_lpflow_inputisolatch_1
XFILLER_19_306 vgnd vpwr scs8hd_decap_12
X_097_ _097_/HI _097_/LO vgnd vpwr scs8hd_conb_1
XFILLER_6_243 vpwr vgnd scs8hd_fill_2
XFILLER_1_53 vgnd vpwr scs8hd_decap_6
XFILLER_18_361 vgnd vpwr scs8hd_decap_12
XANTENNA_mux_bottom_ipin_2.mux_l2_in_0_.TGATE_2_.scs8hd_ebufn_2_A _094_/HI vgnd vpwr
+ scs8hd_diode_2
XANTENNA_mem_bottom_ipin_0.LATCH_2_.latch_SLEEPB _050_/Y vgnd vpwr scs8hd_diode_2
XFILLER_3_224 vpwr vgnd scs8hd_fill_2
XFILLER_3_235 vpwr vgnd scs8hd_fill_2
XFILLER_19_147 vgnd vpwr scs8hd_decap_12
XFILLER_15_342 vgnd vpwr scs8hd_decap_12
XFILLER_15_375 vgnd vpwr scs8hd_decap_12
Xmux_bottom_ipin_1.INVTX1_1_.scs8hd_inv_1 chanx_right_in[1] mux_bottom_ipin_1.INVTX1_1_.scs8hd_inv_1/Y
+ vgnd vpwr scs8hd_inv_1
Xmux_top_ipin_0.INVTX1_1_.scs8hd_inv_1 chanx_right_in[2] mux_top_ipin_0.INVTX1_1_.scs8hd_inv_1/Y
+ vgnd vpwr scs8hd_inv_1
XPHY_101 vgnd vpwr scs8hd_tapvpwrvgnd_1
XPHY_112 vgnd vpwr scs8hd_tapvpwrvgnd_1
XPHY_123 vgnd vpwr scs8hd_tapvpwrvgnd_1
XFILLER_12_312 vgnd vpwr scs8hd_decap_12
XPHY_134 vgnd vpwr scs8hd_tapvpwrvgnd_1
XFILLER_16_117 vgnd vpwr scs8hd_decap_12
XPHY_189 vgnd vpwr scs8hd_tapvpwrvgnd_1
Xmem_bottom_ipin_0.LATCH_5_.latch data_in mem_bottom_ipin_0.LATCH_5_.latch/Q _044_/Y
+ vgnd vpwr scs8hd_lpflow_inputisolatch_1
XFILLER_8_349 vgnd vpwr scs8hd_decap_12
XFILLER_12_389 vgnd vpwr scs8hd_decap_8
XPHY_145 vgnd vpwr scs8hd_tapvpwrvgnd_1
XPHY_156 vgnd vpwr scs8hd_tapvpwrvgnd_1
XPHY_167 vgnd vpwr scs8hd_tapvpwrvgnd_1
XPHY_178 vgnd vpwr scs8hd_tapvpwrvgnd_1
XANTENNA_mem_bottom_ipin_0.LATCH_1_.latch_D data_in vgnd vpwr scs8hd_diode_2
XPHY_3 vgnd vpwr scs8hd_decap_3
XFILLER_7_30 vpwr vgnd scs8hd_fill_2
Xmux_bottom_ipin_2.INVTX1_5_.scs8hd_inv_1 chanx_right_in[6] mux_bottom_ipin_2.INVTX1_5_.scs8hd_inv_1/Y
+ vgnd vpwr scs8hd_inv_1
XFILLER_8_124 vgnd vpwr scs8hd_fill_1
XFILLER_4_385 vgnd vpwr scs8hd_decap_12
Xmem_top_ipin_1.LATCH_1_.latch data_in _088_/A _082_/Y vgnd vpwr scs8hd_lpflow_inputisolatch_1
XFILLER_1_300 vgnd vpwr scs8hd_decap_3
XFILLER_17_245 vgnd vpwr scs8hd_decap_12
XANTENNA_mux_top_ipin_0.mux_l1_in_0_.TGATE_0_.scs8hd_ebufn_2_A mux_top_ipin_0.INVTX1_0_.scs8hd_inv_1/Y
+ vgnd vpwr scs8hd_diode_2
XFILLER_4_160 vpwr vgnd scs8hd_fill_2
XFILLER_14_215 vgnd vpwr scs8hd_decap_12
XFILLER_13_62 vgnd vpwr scs8hd_decap_12
XANTENNA__100__A chanx_right_in[6] vgnd vpwr scs8hd_diode_2
XFILLER_13_281 vgnd vpwr scs8hd_decap_12
XFILLER_20_218 vgnd vpwr scs8hd_decap_12
XFILLER_19_318 vgnd vpwr scs8hd_decap_12
XFILLER_6_211 vgnd vpwr scs8hd_decap_3
XFILLER_10_251 vgnd vpwr scs8hd_decap_12
X_096_ _096_/HI _096_/LO vgnd vpwr scs8hd_conb_1
XFILLER_6_266 vgnd vpwr scs8hd_decap_8
XFILLER_18_373 vgnd vpwr scs8hd_decap_12
Xmem_bottom_ipin_1.LATCH_1_.latch data_in _086_/A _078_/Y vgnd vpwr scs8hd_lpflow_inputisolatch_1
XFILLER_10_41 vpwr vgnd scs8hd_fill_2
XFILLER_10_52 vgnd vpwr scs8hd_decap_12
Xmux_top_ipin_1.mux_l1_in_0_.TGATE_0_.scs8hd_ebufn_2 mux_top_ipin_1.INVTX1_0_.scs8hd_inv_1/Y
+ _089_/A mux_top_ipin_1.mux_l2_in_0_.TGATE_0_.scs8hd_ebufn_2/A vgnd vpwr scs8hd_ebufn_2
XFILLER_19_159 vgnd vpwr scs8hd_decap_12
XFILLER_15_354 vgnd vpwr scs8hd_decap_12
XFILLER_15_387 vgnd vpwr scs8hd_decap_12
X_079_ _075_/X address[5] _078_/C _074_/C _079_/Y vgnd vpwr scs8hd_nor4_4
XFILLER_15_19 vgnd vpwr scs8hd_decap_12
XPHY_102 vgnd vpwr scs8hd_tapvpwrvgnd_1
XPHY_113 vgnd vpwr scs8hd_tapvpwrvgnd_1
XPHY_124 vgnd vpwr scs8hd_tapvpwrvgnd_1
XFILLER_12_324 vgnd vpwr scs8hd_decap_12
XPHY_135 vgnd vpwr scs8hd_tapvpwrvgnd_1
XPHY_146 vgnd vpwr scs8hd_tapvpwrvgnd_1
XFILLER_16_129 vgnd vpwr scs8hd_decap_12
XPHY_157 vgnd vpwr scs8hd_tapvpwrvgnd_1
XPHY_168 vgnd vpwr scs8hd_tapvpwrvgnd_1
XPHY_179 vgnd vpwr scs8hd_tapvpwrvgnd_1
XPHY_4 vgnd vpwr scs8hd_decap_3
XFILLER_15_184 vgnd vpwr scs8hd_decap_12
XFILLER_12_154 vgnd vpwr scs8hd_decap_12
XANTENNA_mux_bottom_ipin_2.mux_l1_in_1_.TGATE_2_.scs8hd_ebufn_2_A mux_bottom_ipin_2.INVTX1_5_.scs8hd_inv_1/Y
+ vgnd vpwr scs8hd_diode_2
XANTENNA__103__A chanx_right_in[3] vgnd vpwr scs8hd_diode_2
XFILLER_7_191 vpwr vgnd scs8hd_fill_2
Xmux_bottom_ipin_0.INVTX1_5_.scs8hd_inv_1 chanx_right_in[8] mux_bottom_ipin_0.INVTX1_5_.scs8hd_inv_1/Y
+ vgnd vpwr scs8hd_inv_1
XANTENNA_mux_top_ipin_0.mux_l2_in_0_.TGATE_0_.scs8hd_ebufn_2_TEB mem_top_ipin_0.LATCH_3_.latch/Q
+ vgnd vpwr scs8hd_diode_2
XFILLER_1_367 vgnd vpwr scs8hd_decap_12
XFILLER_17_257 vgnd vpwr scs8hd_decap_12
Xmux_top_ipin_2.mux_l2_in_0_.TGATE_1_.scs8hd_ebufn_2 _097_/HI _090_/Y mux_top_ipin_2.tap_buf4_0_.scs8hd_inv_1/A
+ vgnd vpwr scs8hd_ebufn_2
XFILLER_14_227 vgnd vpwr scs8hd_decap_12
XFILLER_13_74 vgnd vpwr scs8hd_decap_12
XFILLER_1_153 vpwr vgnd scs8hd_fill_2
XFILLER_9_231 vgnd vpwr scs8hd_decap_12
XFILLER_13_293 vgnd vpwr scs8hd_decap_12
XFILLER_11_208 vgnd vpwr scs8hd_decap_12
XFILLER_1_8 vgnd vpwr scs8hd_decap_3
X_095_ _095_/HI _095_/LO vgnd vpwr scs8hd_conb_1
XFILLER_10_263 vgnd vpwr scs8hd_decap_12
XFILLER_6_289 vpwr vgnd scs8hd_fill_2
XANTENNA__111__A chanx_left_in[4] vgnd vpwr scs8hd_diode_2
XFILLER_18_385 vgnd vpwr scs8hd_decap_12
XFILLER_10_64 vgnd vpwr scs8hd_decap_12
XFILLER_19_51 vgnd vpwr scs8hd_decap_8
XFILLER_19_62 vgnd vpwr scs8hd_decap_12
XFILLER_15_399 vgnd vpwr scs8hd_decap_8
X_078_ _075_/X address[5] _078_/C _078_/D _078_/Y vgnd vpwr scs8hd_nor4_4
XANTENNA__106__A chanx_right_in[0] vgnd vpwr scs8hd_diode_2
XFILLER_18_3 vgnd vpwr scs8hd_decap_12
XFILLER_0_218 vgnd vpwr scs8hd_decap_3
XPHY_103 vgnd vpwr scs8hd_tapvpwrvgnd_1
XPHY_114 vgnd vpwr scs8hd_tapvpwrvgnd_1
XPHY_125 vgnd vpwr scs8hd_tapvpwrvgnd_1
XPHY_136 vgnd vpwr scs8hd_tapvpwrvgnd_1
XPHY_147 vgnd vpwr scs8hd_tapvpwrvgnd_1
XPHY_158 vgnd vpwr scs8hd_tapvpwrvgnd_1
XPHY_169 vgnd vpwr scs8hd_tapvpwrvgnd_1
XPHY_5 vgnd vpwr scs8hd_decap_3
XFILLER_7_43 vpwr vgnd scs8hd_fill_2
XFILLER_15_196 vgnd vpwr scs8hd_decap_12
XFILLER_7_98 vgnd vpwr scs8hd_fill_1
XANTENNA_mem_top_ipin_2.LATCH_0_.latch_SLEEPB _085_/Y vgnd vpwr scs8hd_diode_2
XFILLER_12_166 vgnd vpwr scs8hd_decap_12
XFILLER_4_398 vgnd vpwr scs8hd_decap_8
XANTENNA_mem_top_ipin_0.LATCH_2_.latch_D data_in vgnd vpwr scs8hd_diode_2
XANTENNA_mem_top_ipin_1.LATCH_0_.latch_D data_in vgnd vpwr scs8hd_diode_2
XFILLER_5_107 vpwr vgnd scs8hd_fill_2
XFILLER_5_118 vpwr vgnd scs8hd_fill_2
XFILLER_1_379 vgnd vpwr scs8hd_decap_12
XFILLER_17_269 vgnd vpwr scs8hd_decap_12
XANTENNA_mux_top_ipin_1.mux_l1_in_0_.TGATE_0_.scs8hd_ebufn_2_A mux_top_ipin_1.INVTX1_0_.scs8hd_inv_1/Y
+ vgnd vpwr scs8hd_diode_2
XFILLER_4_88 vgnd vpwr scs8hd_decap_4
XFILLER_4_140 vpwr vgnd scs8hd_fill_2
XANTENNA__114__A chanx_left_in[1] vgnd vpwr scs8hd_diode_2
XANTENNA_mux_top_ipin_1.INVTX1_1_.scs8hd_inv_1_A chanx_right_in[4] vgnd vpwr scs8hd_diode_2
Xmux_top_ipin_0.mux_l1_in_0_.TGATE_0_.scs8hd_ebufn_2 mux_top_ipin_0.INVTX1_0_.scs8hd_inv_1/Y
+ mem_top_ipin_0.LATCH_0_.latch/Q mux_top_ipin_0.mux_l1_in_0_.TGATE_0_.scs8hd_ebufn_2/Z
+ vgnd vpwr scs8hd_ebufn_2
XFILLER_14_239 vgnd vpwr scs8hd_decap_12
XFILLER_13_31 vgnd vpwr scs8hd_decap_12
XFILLER_13_86 vgnd vpwr scs8hd_decap_12
XFILLER_1_176 vpwr vgnd scs8hd_fill_2
XFILLER_1_132 vgnd vpwr scs8hd_decap_4
XANTENNA__109__A chanx_left_in[6] vgnd vpwr scs8hd_diode_2
XFILLER_9_243 vgnd vpwr scs8hd_fill_1
X_094_ _094_/HI _094_/LO vgnd vpwr scs8hd_conb_1