* NGSPICE file created from cbx_1__1_.ext - technology: sky130A

* Black-box entry subcircuit for sky130_fd_sc_hd__dfxtp_1 abstract view
.subckt sky130_fd_sc_hd__dfxtp_1 CLK D VGND VNB VPB VPWR Q
.ends

* Black-box entry subcircuit for sky130_fd_sc_hd__fill_2 abstract view
.subckt sky130_fd_sc_hd__fill_2 VGND VNB VPB VPWR
.ends

* Black-box entry subcircuit for sky130_fd_sc_hd__mux2_1 abstract view
.subckt sky130_fd_sc_hd__mux2_1 A0 A1 S VGND VNB VPB VPWR X
.ends

* Black-box entry subcircuit for sky130_fd_sc_hd__buf_2 abstract view
.subckt sky130_fd_sc_hd__buf_2 A VGND VNB VPB VPWR X
.ends

* Black-box entry subcircuit for sky130_fd_sc_hd__buf_4 abstract view
.subckt sky130_fd_sc_hd__buf_4 A VGND VNB VPB VPWR X
.ends

* Black-box entry subcircuit for sky130_fd_sc_hd__decap_4 abstract view
.subckt sky130_fd_sc_hd__decap_4 VGND VNB VPB VPWR
.ends

* Black-box entry subcircuit for sky130_fd_sc_hd__decap_12 abstract view
.subckt sky130_fd_sc_hd__decap_12 VGND VNB VPB VPWR
.ends

* Black-box entry subcircuit for sky130_fd_sc_hd__clkbuf_1 abstract view
.subckt sky130_fd_sc_hd__clkbuf_1 A VGND VNB VPB VPWR X
.ends

* Black-box entry subcircuit for sky130_fd_sc_hd__fill_1 abstract view
.subckt sky130_fd_sc_hd__fill_1 VGND VNB VPB VPWR
.ends

* Black-box entry subcircuit for sky130_fd_sc_hd__decap_8 abstract view
.subckt sky130_fd_sc_hd__decap_8 VGND VNB VPB VPWR
.ends

* Black-box entry subcircuit for sky130_fd_sc_hd__decap_3 abstract view
.subckt sky130_fd_sc_hd__decap_3 VGND VNB VPB VPWR
.ends

* Black-box entry subcircuit for sky130_fd_sc_hd__clkbuf_16 abstract view
.subckt sky130_fd_sc_hd__clkbuf_16 A VGND VNB VPB VPWR X
.ends

* Black-box entry subcircuit for sky130_fd_sc_hd__decap_6 abstract view
.subckt sky130_fd_sc_hd__decap_6 VGND VNB VPB VPWR
.ends

* Black-box entry subcircuit for sky130_fd_sc_hd__buf_8 abstract view
.subckt sky130_fd_sc_hd__buf_8 A VGND VNB VPB VPWR X
.ends

* Black-box entry subcircuit for sky130_fd_sc_hd__conb_1 abstract view
.subckt sky130_fd_sc_hd__conb_1 VGND VNB VPB VPWR HI LO
.ends

* Black-box entry subcircuit for sky130_fd_sc_hd__tapvpwrvgnd_1 abstract view
.subckt sky130_fd_sc_hd__tapvpwrvgnd_1 VGND VPWR
.ends

.subckt cbx_1__1_ REGIN_FEEDTHROUGH REGOUT_FEEDTHROUGH SC_IN_BOT SC_IN_TOP SC_OUT_BOT
+ SC_OUT_TOP bottom_grid_pin_0_ bottom_grid_pin_10_ bottom_grid_pin_11_ bottom_grid_pin_12_
+ bottom_grid_pin_13_ bottom_grid_pin_14_ bottom_grid_pin_15_ bottom_grid_pin_1_ bottom_grid_pin_2_
+ bottom_grid_pin_3_ bottom_grid_pin_4_ bottom_grid_pin_5_ bottom_grid_pin_6_ bottom_grid_pin_7_
+ bottom_grid_pin_8_ bottom_grid_pin_9_ ccff_head ccff_tail chanx_left_in[0] chanx_left_in[10]
+ chanx_left_in[11] chanx_left_in[12] chanx_left_in[13] chanx_left_in[14] chanx_left_in[15]
+ chanx_left_in[16] chanx_left_in[17] chanx_left_in[18] chanx_left_in[19] chanx_left_in[1]
+ chanx_left_in[2] chanx_left_in[3] chanx_left_in[4] chanx_left_in[5] chanx_left_in[6]
+ chanx_left_in[7] chanx_left_in[8] chanx_left_in[9] chanx_left_out[0] chanx_left_out[10]
+ chanx_left_out[11] chanx_left_out[12] chanx_left_out[13] chanx_left_out[14] chanx_left_out[15]
+ chanx_left_out[16] chanx_left_out[17] chanx_left_out[18] chanx_left_out[19] chanx_left_out[1]
+ chanx_left_out[2] chanx_left_out[3] chanx_left_out[4] chanx_left_out[5] chanx_left_out[6]
+ chanx_left_out[7] chanx_left_out[8] chanx_left_out[9] chanx_right_in[0] chanx_right_in[10]
+ chanx_right_in[11] chanx_right_in[12] chanx_right_in[13] chanx_right_in[14] chanx_right_in[15]
+ chanx_right_in[16] chanx_right_in[17] chanx_right_in[18] chanx_right_in[19] chanx_right_in[1]
+ chanx_right_in[2] chanx_right_in[3] chanx_right_in[4] chanx_right_in[5] chanx_right_in[6]
+ chanx_right_in[7] chanx_right_in[8] chanx_right_in[9] chanx_right_out[0] chanx_right_out[10]
+ chanx_right_out[11] chanx_right_out[12] chanx_right_out[13] chanx_right_out[14]
+ chanx_right_out[15] chanx_right_out[16] chanx_right_out[17] chanx_right_out[18]
+ chanx_right_out[19] chanx_right_out[1] chanx_right_out[2] chanx_right_out[3] chanx_right_out[4]
+ chanx_right_out[5] chanx_right_out[6] chanx_right_out[7] chanx_right_out[8] chanx_right_out[9]
+ clk_1_E_in clk_1_N_out clk_1_S_out clk_1_W_in clk_2_E_in clk_2_E_out clk_2_W_in
+ clk_2_W_out clk_3_E_in clk_3_E_out clk_3_W_in clk_3_W_out prog_clk_0_N_in prog_clk_0_W_out
+ prog_clk_1_E_in prog_clk_1_N_out prog_clk_1_S_out prog_clk_1_W_in prog_clk_2_E_in
+ prog_clk_2_E_out prog_clk_2_W_in prog_clk_2_W_out prog_clk_3_E_in prog_clk_3_E_out
+ prog_clk_3_W_in prog_clk_3_W_out VPWR VGND
Xmem_top_ipin_8.sky130_fd_sc_hd__dfxtp_1_0_ clkbuf_3_6_0_mem_top_ipin_0.prog_clk/X
+ mux_top_ipin_7.mux_l4_in_0_/S VGND VGND VPWR VPWR mux_top_ipin_8.mux_l1_in_1_/S
+ sky130_fd_sc_hd__dfxtp_1
XFILLER_13_188 VGND VGND VPWR VPWR sky130_fd_sc_hd__fill_2
XFILLER_13_155 VGND VGND VPWR VPWR sky130_fd_sc_hd__fill_2
XFILLER_3_78 VGND VGND VPWR VPWR sky130_fd_sc_hd__fill_2
XFILLER_9_137 VGND VGND VPWR VPWR sky130_fd_sc_hd__fill_2
Xmux_top_ipin_13.mux_l3_in_0_ mux_top_ipin_13.mux_l2_in_1_/X mux_top_ipin_13.mux_l2_in_0_/X
+ mux_top_ipin_13.mux_l3_in_1_/S VGND VGND VPWR VPWR mux_top_ipin_13.mux_l3_in_0_/X
+ sky130_fd_sc_hd__mux2_1
X_66_ chanx_left_in[11] VGND VGND VPWR VPWR chanx_right_out[11] sky130_fd_sc_hd__buf_2
Xclk_1_N_FTB01 clk_1_W_in VGND VGND VPWR VPWR clk_1_N_out sky130_fd_sc_hd__buf_4
Xmux_top_ipin_6.mux_l2_in_0_ chanx_left_in[2] mux_top_ipin_6.mux_l1_in_0_/X mux_top_ipin_6.mux_l2_in_0_/S
+ VGND VGND VPWR VPWR mux_top_ipin_6.mux_l2_in_0_/X sky130_fd_sc_hd__mux2_1
XFILLER_0_46 VGND VGND VPWR VPWR sky130_fd_sc_hd__decap_4
X_49_ chanx_right_in[14] VGND VGND VPWR VPWR chanx_left_out[14] sky130_fd_sc_hd__buf_2
Xmux_top_ipin_13.mux_l2_in_1_ chanx_left_in[9] chanx_right_in[3] mux_top_ipin_13.mux_l2_in_3_/S
+ VGND VGND VPWR VPWR mux_top_ipin_13.mux_l2_in_1_/X sky130_fd_sc_hd__mux2_1
XFILLER_20_32 VGND VGND VPWR VPWR sky130_fd_sc_hd__decap_12
Xclkbuf_3_2_0_mem_top_ipin_0.prog_clk clkbuf_3_3_0_mem_top_ipin_0.prog_clk/A VGND
+ VGND VPWR VPWR clkbuf_3_2_0_mem_top_ipin_0.prog_clk/X sky130_fd_sc_hd__clkbuf_1
XFILLER_15_76 VGND VGND VPWR VPWR sky130_fd_sc_hd__decap_4
XFILLER_16_120 VGND VGND VPWR VPWR sky130_fd_sc_hd__fill_1
XFILLER_22_156 VGND VGND VPWR VPWR sky130_fd_sc_hd__decap_12
Xmux_top_ipin_1.mux_l1_in_0_ chanx_right_in[1] chanx_left_in[1] mux_top_ipin_1.mux_l1_in_0_/S
+ VGND VGND VPWR VPWR mux_top_ipin_1.mux_l1_in_0_/X sky130_fd_sc_hd__mux2_1
XFILLER_3_13 VGND VGND VPWR VPWR sky130_fd_sc_hd__fill_2
XFILLER_3_24 VGND VGND VPWR VPWR sky130_fd_sc_hd__fill_2
X_65_ chanx_left_in[10] VGND VGND VPWR VPWR chanx_right_out[10] sky130_fd_sc_hd__buf_2
Xprog_clk_2_W_FTB01 prog_clk_2_W_in VGND VGND VPWR VPWR prog_clk_2_W_out sky130_fd_sc_hd__buf_4
XFILLER_0_36 VGND VGND VPWR VPWR sky130_fd_sc_hd__fill_1
XFILLER_2_144 VGND VGND VPWR VPWR sky130_fd_sc_hd__decap_8
XFILLER_2_188 VGND VGND VPWR VPWR sky130_fd_sc_hd__fill_2
XFILLER_9_34 VGND VGND VPWR VPWR sky130_fd_sc_hd__decap_3
X_48_ chanx_right_in[13] VGND VGND VPWR VPWR chanx_left_out[13] sky130_fd_sc_hd__buf_2
XFILLER_18_32 VGND VGND VPWR VPWR sky130_fd_sc_hd__decap_12
Xmux_top_ipin_13.mux_l2_in_0_ chanx_left_in[3] mux_top_ipin_13.mux_l1_in_0_/X mux_top_ipin_13.mux_l2_in_3_/S
+ VGND VGND VPWR VPWR mux_top_ipin_13.mux_l2_in_0_/X sky130_fd_sc_hd__mux2_1
Xmux_top_ipin_6.mux_l1_in_0_ chanx_right_in[0] chanx_left_in[0] mux_top_ipin_6.mux_l1_in_0_/S
+ VGND VGND VPWR VPWR mux_top_ipin_6.mux_l1_in_0_/X sky130_fd_sc_hd__mux2_1
XFILLER_20_44 VGND VGND VPWR VPWR sky130_fd_sc_hd__decap_12
Xclkbuf_2_3_0_mem_top_ipin_0.prog_clk clkbuf_2_3_0_mem_top_ipin_0.prog_clk/A VGND
+ VGND VPWR VPWR clkbuf_3_7_0_mem_top_ipin_0.prog_clk/A sky130_fd_sc_hd__clkbuf_1
XFILLER_22_168 VGND VGND VPWR VPWR sky130_fd_sc_hd__decap_12
XFILLER_8_172 VGND VGND VPWR VPWR sky130_fd_sc_hd__fill_2
XFILLER_8_183 VGND VGND VPWR VPWR sky130_fd_sc_hd__fill_2
Xclkbuf_0_mem_top_ipin_0.prog_clk prog_clk_0_FTB00/X VGND VGND VPWR VPWR clkbuf_0_mem_top_ipin_0.prog_clk/X
+ sky130_fd_sc_hd__clkbuf_16
XFILLER_10_127 VGND VGND VPWR VPWR sky130_fd_sc_hd__fill_2
X_64_ chanx_left_in[9] VGND VGND VPWR VPWR chanx_right_out[9] sky130_fd_sc_hd__buf_2
XFILLER_5_120 VGND VGND VPWR VPWR sky130_fd_sc_hd__fill_2
XFILLER_0_15 VGND VGND VPWR VPWR sky130_fd_sc_hd__decap_4
XFILLER_3_3 VGND VGND VPWR VPWR sky130_fd_sc_hd__fill_1
Xmux_top_ipin_4.sky130_fd_sc_hd__buf_4_0_ mux_top_ipin_4.mux_l4_in_0_/X VGND VGND
+ VPWR VPWR bottom_grid_pin_4_ sky130_fd_sc_hd__buf_4
X_47_ chanx_right_in[12] VGND VGND VPWR VPWR chanx_left_out[12] sky130_fd_sc_hd__buf_2
XFILLER_9_79 VGND VGND VPWR VPWR sky130_fd_sc_hd__decap_6
XFILLER_18_44 VGND VGND VPWR VPWR sky130_fd_sc_hd__decap_8
Xclk_2_E_FTB01 clk_2_W_in VGND VGND VPWR VPWR clk_2_E_out sky130_fd_sc_hd__buf_4
XFILLER_20_56 VGND VGND VPWR VPWR sky130_fd_sc_hd__decap_12
Xmux_top_ipin_13.mux_l1_in_0_ chanx_right_in[1] chanx_left_in[1] mux_top_ipin_13.mux_l1_in_0_/S
+ VGND VGND VPWR VPWR mux_top_ipin_13.mux_l1_in_0_/X sky130_fd_sc_hd__mux2_1
XFILLER_15_56 VGND VGND VPWR VPWR sky130_fd_sc_hd__decap_4
XFILLER_15_45 VGND VGND VPWR VPWR sky130_fd_sc_hd__fill_2
XFILLER_15_34 VGND VGND VPWR VPWR sky130_fd_sc_hd__fill_2
XFILLER_22_125 VGND VGND VPWR VPWR sky130_fd_sc_hd__decap_12
XFILLER_13_103 VGND VGND VPWR VPWR sky130_fd_sc_hd__decap_4
XFILLER_3_59 VGND VGND VPWR VPWR sky130_fd_sc_hd__fill_2
XFILLER_5_132 VGND VGND VPWR VPWR sky130_fd_sc_hd__decap_3
X_63_ chanx_left_in[8] VGND VGND VPWR VPWR chanx_right_out[8] sky130_fd_sc_hd__buf_2
Xprog_clk_0_FTB00 prog_clk_0_N_in VGND VGND VPWR VPWR prog_clk_0_FTB00/X sky130_fd_sc_hd__buf_8
X_46_ chanx_right_in[11] VGND VGND VPWR VPWR chanx_left_out[11] sky130_fd_sc_hd__buf_2
XFILLER_15_9 VGND VGND VPWR VPWR sky130_fd_sc_hd__fill_2
X_29_ VGND VGND VPWR VPWR _29_/HI _29_/LO sky130_fd_sc_hd__conb_1
XFILLER_20_68 VGND VGND VPWR VPWR sky130_fd_sc_hd__decap_12
Xmux_top_ipin_11.sky130_fd_sc_hd__buf_4_0_ mux_top_ipin_11.mux_l4_in_0_/X VGND VGND
+ VPWR VPWR bottom_grid_pin_11_ sky130_fd_sc_hd__buf_4
XFILLER_19_120 VGND VGND VPWR VPWR sky130_fd_sc_hd__fill_2
XFILLER_20_7 VGND VGND VPWR VPWR sky130_fd_sc_hd__fill_1
XFILLER_15_24 VGND VGND VPWR VPWR sky130_fd_sc_hd__fill_1
XFILLER_11_3 VGND VGND VPWR VPWR sky130_fd_sc_hd__decap_3
XFILLER_22_137 VGND VGND VPWR VPWR sky130_fd_sc_hd__decap_12
Xmux_top_ipin_2.mux_l2_in_3_ _28_/HI chanx_right_in[14] mux_top_ipin_2.mux_l2_in_2_/S
+ VGND VGND VPWR VPWR mux_top_ipin_2.mux_l2_in_3_/X sky130_fd_sc_hd__mux2_1
XFILLER_9_108 VGND VGND VPWR VPWR sky130_fd_sc_hd__decap_3
XFILLER_12_25 VGND VGND VPWR VPWR sky130_fd_sc_hd__decap_6
XFILLER_8_152 VGND VGND VPWR VPWR sky130_fd_sc_hd__fill_1
XFILLER_5_144 VGND VGND VPWR VPWR sky130_fd_sc_hd__fill_2
X_62_ chanx_left_in[7] VGND VGND VPWR VPWR chanx_right_out[7] sky130_fd_sc_hd__buf_2
XFILLER_5_188 VGND VGND VPWR VPWR sky130_fd_sc_hd__fill_2
XFILLER_4_81 VGND VGND VPWR VPWR sky130_fd_sc_hd__fill_2
XFILLER_9_59 VGND VGND VPWR VPWR sky130_fd_sc_hd__fill_2
XFILLER_18_79 VGND VGND VPWR VPWR sky130_fd_sc_hd__fill_2
XFILLER_18_68 VGND VGND VPWR VPWR sky130_fd_sc_hd__fill_2
X_45_ chanx_right_in[10] VGND VGND VPWR VPWR chanx_left_out[10] sky130_fd_sc_hd__buf_2
Xmux_top_ipin_2.mux_l4_in_0_ mux_top_ipin_2.mux_l3_in_1_/X mux_top_ipin_2.mux_l3_in_0_/X
+ mux_top_ipin_2.mux_l4_in_0_/S VGND VGND VPWR VPWR mux_top_ipin_2.mux_l4_in_0_/X
+ sky130_fd_sc_hd__mux2_1
X_28_ VGND VGND VPWR VPWR _28_/HI _28_/LO sky130_fd_sc_hd__conb_1
Xmux_top_ipin_7.mux_l2_in_3_ _17_/HI chanx_right_in[17] mux_top_ipin_7.mux_l2_in_3_/S
+ VGND VGND VPWR VPWR mux_top_ipin_7.mux_l2_in_3_/X sky130_fd_sc_hd__mux2_1
XFILLER_20_14 VGND VGND VPWR VPWR sky130_fd_sc_hd__fill_2
XFILLER_13_7 VGND VGND VPWR VPWR sky130_fd_sc_hd__fill_2
Xmux_top_ipin_2.mux_l3_in_1_ mux_top_ipin_2.mux_l2_in_3_/X mux_top_ipin_2.mux_l2_in_2_/X
+ mux_top_ipin_2.mux_l3_in_1_/S VGND VGND VPWR VPWR mux_top_ipin_2.mux_l3_in_1_/X
+ sky130_fd_sc_hd__mux2_1
Xclkbuf_3_5_0_mem_top_ipin_0.prog_clk clkbuf_2_2_0_mem_top_ipin_0.prog_clk/X VGND
+ VGND VPWR VPWR clkbuf_3_5_0_mem_top_ipin_0.prog_clk/X sky130_fd_sc_hd__clkbuf_1
XFILLER_22_149 VGND VGND VPWR VPWR sky130_fd_sc_hd__decap_6
XFILLER_21_171 VGND VGND VPWR VPWR sky130_fd_sc_hd__fill_2
XFILLER_13_149 VGND VGND VPWR VPWR sky130_fd_sc_hd__fill_2
XFILLER_13_138 VGND VGND VPWR VPWR sky130_fd_sc_hd__fill_2
XFILLER_13_127 VGND VGND VPWR VPWR sky130_fd_sc_hd__fill_2
Xmux_top_ipin_2.mux_l2_in_2_ chanx_left_in[14] chanx_right_in[6] mux_top_ipin_2.mux_l2_in_2_/S
+ VGND VGND VPWR VPWR mux_top_ipin_2.mux_l2_in_2_/X sky130_fd_sc_hd__mux2_1
Xmux_top_ipin_7.mux_l4_in_0_ mux_top_ipin_7.mux_l3_in_1_/X mux_top_ipin_7.mux_l3_in_0_/X
+ mux_top_ipin_7.mux_l4_in_0_/S VGND VGND VPWR VPWR mux_top_ipin_7.mux_l4_in_0_/X
+ sky130_fd_sc_hd__mux2_1
XFILLER_16_90 VGND VGND VPWR VPWR sky130_fd_sc_hd__fill_2
XFILLER_12_182 VGND VGND VPWR VPWR sky130_fd_sc_hd__fill_2
XFILLER_12_48 VGND VGND VPWR VPWR sky130_fd_sc_hd__fill_2
X_61_ chanx_left_in[6] VGND VGND VPWR VPWR chanx_right_out[6] sky130_fd_sc_hd__buf_2
XFILLER_4_93 VGND VGND VPWR VPWR sky130_fd_sc_hd__fill_1
Xmux_top_ipin_7.mux_l3_in_1_ mux_top_ipin_7.mux_l2_in_3_/X mux_top_ipin_7.mux_l2_in_2_/X
+ mux_top_ipin_7.mux_l3_in_1_/S VGND VGND VPWR VPWR mux_top_ipin_7.mux_l3_in_1_/X
+ sky130_fd_sc_hd__mux2_1
XFILLER_0_29 VGND VGND VPWR VPWR sky130_fd_sc_hd__fill_2
XFILLER_2_126 VGND VGND VPWR VPWR sky130_fd_sc_hd__fill_2
X_44_ chanx_right_in[9] VGND VGND VPWR VPWR chanx_left_out[9] sky130_fd_sc_hd__buf_2
XFILLER_1_3 VGND VGND VPWR VPWR sky130_fd_sc_hd__decap_4
X_27_ VGND VGND VPWR VPWR _27_/HI _27_/LO sky130_fd_sc_hd__conb_1
Xmux_top_ipin_7.mux_l2_in_2_ chanx_left_in[17] chanx_right_in[11] mux_top_ipin_7.mux_l2_in_3_/S
+ VGND VGND VPWR VPWR mux_top_ipin_7.mux_l2_in_2_/X sky130_fd_sc_hd__mux2_1
XFILLER_19_188 VGND VGND VPWR VPWR sky130_fd_sc_hd__fill_2
XFILLER_6_17 VGND VGND VPWR VPWR sky130_fd_sc_hd__fill_2
XFILLER_6_28 VGND VGND VPWR VPWR sky130_fd_sc_hd__decap_3
Xmux_top_ipin_2.mux_l3_in_0_ mux_top_ipin_2.mux_l2_in_1_/X mux_top_ipin_2.mux_l2_in_0_/X
+ mux_top_ipin_2.mux_l3_in_1_/S VGND VGND VPWR VPWR mux_top_ipin_2.mux_l3_in_0_/X
+ sky130_fd_sc_hd__mux2_1
Xmux_top_ipin_14.mux_l2_in_3_ _26_/HI chanx_right_in[18] mux_top_ipin_14.mux_l2_in_1_/S
+ VGND VGND VPWR VPWR mux_top_ipin_14.mux_l2_in_3_/X sky130_fd_sc_hd__mux2_1
XPHY_120 VGND VPWR sky130_fd_sc_hd__tapvpwrvgnd_1
XFILLER_16_114 VGND VGND VPWR VPWR sky130_fd_sc_hd__decap_6
XFILLER_22_106 VGND VGND VPWR VPWR sky130_fd_sc_hd__decap_12
XPHY_0 VGND VGND VPWR VPWR sky130_fd_sc_hd__decap_3
Xmux_top_ipin_2.mux_l2_in_1_ chanx_left_in[6] chanx_right_in[2] mux_top_ipin_2.mux_l2_in_2_/S
+ VGND VGND VPWR VPWR mux_top_ipin_2.mux_l2_in_1_/X sky130_fd_sc_hd__mux2_1
XFILLER_12_150 VGND VGND VPWR VPWR sky130_fd_sc_hd__decap_3
XFILLER_8_154 VGND VGND VPWR VPWR sky130_fd_sc_hd__fill_2
XFILLER_10_109 VGND VGND VPWR VPWR sky130_fd_sc_hd__fill_2
Xmux_top_ipin_14.mux_l4_in_0_ mux_top_ipin_14.mux_l3_in_1_/X mux_top_ipin_14.mux_l3_in_0_/X
+ mux_top_ipin_14.mux_l4_in_0_/S VGND VGND VPWR VPWR mux_top_ipin_14.mux_l4_in_0_/X
+ sky130_fd_sc_hd__mux2_1
XFILLER_5_102 VGND VGND VPWR VPWR sky130_fd_sc_hd__decap_4
XFILLER_5_168 VGND VGND VPWR VPWR sky130_fd_sc_hd__fill_2
XFILLER_5_179 VGND VGND VPWR VPWR sky130_fd_sc_hd__decap_4
X_60_ chanx_left_in[5] VGND VGND VPWR VPWR chanx_right_out[5] sky130_fd_sc_hd__buf_2
Xclk_3_W_FTB01 clk_3_W_in VGND VGND VPWR VPWR clk_3_W_out sky130_fd_sc_hd__buf_4
Xmux_top_ipin_7.mux_l3_in_0_ mux_top_ipin_7.mux_l2_in_1_/X mux_top_ipin_7.mux_l2_in_0_/X
+ mux_top_ipin_7.mux_l3_in_1_/S VGND VGND VPWR VPWR mux_top_ipin_7.mux_l3_in_0_/X
+ sky130_fd_sc_hd__mux2_1
XFILLER_0_19 VGND VGND VPWR VPWR sky130_fd_sc_hd__fill_1
XFILLER_9_17 VGND VGND VPWR VPWR sky130_fd_sc_hd__fill_2
XFILLER_9_28 VGND VGND VPWR VPWR sky130_fd_sc_hd__fill_2
X_43_ chanx_right_in[8] VGND VGND VPWR VPWR chanx_left_out[8] sky130_fd_sc_hd__buf_2
Xmux_top_ipin_7.sky130_fd_sc_hd__buf_4_0_ mux_top_ipin_7.mux_l4_in_0_/X VGND VGND
+ VPWR VPWR bottom_grid_pin_7_ sky130_fd_sc_hd__buf_4
Xmux_top_ipin_14.mux_l3_in_1_ mux_top_ipin_14.mux_l2_in_3_/X mux_top_ipin_14.mux_l2_in_2_/X
+ mux_top_ipin_14.mux_l3_in_1_/S VGND VGND VPWR VPWR mux_top_ipin_14.mux_l3_in_1_/X
+ sky130_fd_sc_hd__mux2_1
Xmux_top_ipin_7.mux_l2_in_1_ chanx_left_in[11] mux_top_ipin_7.mux_l1_in_2_/X mux_top_ipin_7.mux_l2_in_3_/S
+ VGND VGND VPWR VPWR mux_top_ipin_7.mux_l2_in_1_/X sky130_fd_sc_hd__mux2_1
XFILLER_1_62 VGND VGND VPWR VPWR sky130_fd_sc_hd__decap_3
XFILLER_1_51 VGND VGND VPWR VPWR sky130_fd_sc_hd__fill_2
X_26_ VGND VGND VPWR VPWR _26_/HI _26_/LO sky130_fd_sc_hd__conb_1
XFILLER_19_178 VGND VGND VPWR VPWR sky130_fd_sc_hd__decap_4
XFILLER_19_167 VGND VGND VPWR VPWR sky130_fd_sc_hd__fill_2
XFILLER_19_123 VGND VGND VPWR VPWR sky130_fd_sc_hd__decap_12
XPHY_110 VGND VPWR sky130_fd_sc_hd__tapvpwrvgnd_1
XFILLER_16_148 VGND VGND VPWR VPWR sky130_fd_sc_hd__decap_4
Xmux_top_ipin_14.mux_l2_in_2_ chanx_left_in[18] chanx_right_in[10] mux_top_ipin_14.mux_l2_in_1_/S
+ VGND VGND VPWR VPWR mux_top_ipin_14.mux_l2_in_2_/X sky130_fd_sc_hd__mux2_1
XFILLER_22_118 VGND VGND VPWR VPWR sky130_fd_sc_hd__decap_6
Xmux_top_ipin_7.mux_l1_in_2_ chanx_right_in[7] chanx_left_in[7] mux_top_ipin_7.mux_l1_in_2_/S
+ VGND VGND VPWR VPWR mux_top_ipin_7.mux_l1_in_2_/X sky130_fd_sc_hd__mux2_1
XFILLER_15_181 VGND VGND VPWR VPWR sky130_fd_sc_hd__fill_2
XFILLER_15_170 VGND VGND VPWR VPWR sky130_fd_sc_hd__fill_2
XPHY_1 VGND VGND VPWR VPWR sky130_fd_sc_hd__decap_3
XFILLER_13_107 VGND VGND VPWR VPWR sky130_fd_sc_hd__fill_1
Xmux_top_ipin_2.mux_l2_in_0_ chanx_left_in[2] mux_top_ipin_2.mux_l1_in_0_/X mux_top_ipin_2.mux_l2_in_2_/S
+ VGND VGND VPWR VPWR mux_top_ipin_2.mux_l2_in_0_/X sky130_fd_sc_hd__mux2_1
XFILLER_8_111 VGND VGND VPWR VPWR sky130_fd_sc_hd__fill_2
XFILLER_8_188 VGND VGND VPWR VPWR sky130_fd_sc_hd__fill_2
Xmem_top_ipin_1.sky130_fd_sc_hd__dfxtp_1_3_ clkbuf_3_1_0_mem_top_ipin_0.prog_clk/X
+ mux_top_ipin_1.mux_l3_in_0_/S VGND VGND VPWR VPWR mux_top_ipin_1.mux_l4_in_0_/S
+ sky130_fd_sc_hd__dfxtp_1
X_42_ chanx_right_in[7] VGND VGND VPWR VPWR chanx_left_out[7] sky130_fd_sc_hd__buf_2
Xmem_top_ipin_11.sky130_fd_sc_hd__dfxtp_1_3_ clkbuf_3_6_0_mem_top_ipin_0.prog_clk/X
+ mux_top_ipin_11.mux_l3_in_0_/S VGND VGND VPWR VPWR mux_top_ipin_11.mux_l4_in_0_/S
+ sky130_fd_sc_hd__dfxtp_1
Xmux_top_ipin_14.mux_l3_in_0_ mux_top_ipin_14.mux_l2_in_1_/X mux_top_ipin_14.mux_l2_in_0_/X
+ mux_top_ipin_14.mux_l3_in_1_/S VGND VGND VPWR VPWR mux_top_ipin_14.mux_l3_in_0_/X
+ sky130_fd_sc_hd__mux2_1
Xmux_top_ipin_7.mux_l2_in_0_ mux_top_ipin_7.mux_l1_in_1_/X mux_top_ipin_7.mux_l1_in_0_/X
+ mux_top_ipin_7.mux_l2_in_3_/S VGND VGND VPWR VPWR mux_top_ipin_7.mux_l2_in_0_/X
+ sky130_fd_sc_hd__mux2_1
XFILLER_20_28 VGND VGND VPWR VPWR sky130_fd_sc_hd__decap_3
X_25_ VGND VGND VPWR VPWR _25_/HI _25_/LO sky130_fd_sc_hd__conb_1
XFILLER_1_85 VGND VGND VPWR VPWR sky130_fd_sc_hd__decap_3
XFILLER_1_74 VGND VGND VPWR VPWR sky130_fd_sc_hd__fill_2
XFILLER_19_135 VGND VGND VPWR VPWR sky130_fd_sc_hd__decap_12
XPHY_100 VGND VPWR sky130_fd_sc_hd__tapvpwrvgnd_1
Xmux_top_ipin_14.mux_l2_in_1_ chanx_left_in[10] chanx_right_in[2] mux_top_ipin_14.mux_l2_in_1_/S
+ VGND VGND VPWR VPWR mux_top_ipin_14.mux_l2_in_1_/X sky130_fd_sc_hd__mux2_1
Xmux_top_ipin_14.sky130_fd_sc_hd__buf_4_0_ mux_top_ipin_14.mux_l4_in_0_/X VGND VGND
+ VPWR VPWR bottom_grid_pin_14_ sky130_fd_sc_hd__buf_4
XPHY_111 VGND VPWR sky130_fd_sc_hd__tapvpwrvgnd_1
Xmux_top_ipin_7.mux_l1_in_1_ chanx_right_in[3] chanx_left_in[3] mux_top_ipin_7.mux_l1_in_2_/S
+ VGND VGND VPWR VPWR mux_top_ipin_7.mux_l1_in_1_/X sky130_fd_sc_hd__mux2_1
XPHY_2 VGND VGND VPWR VPWR sky130_fd_sc_hd__decap_3
Xmem_top_ipin_4.sky130_fd_sc_hd__dfxtp_1_3_ clkbuf_3_2_0_mem_top_ipin_0.prog_clk/X
+ mux_top_ipin_4.mux_l3_in_0_/S VGND VGND VPWR VPWR mux_top_ipin_4.mux_l4_in_0_/S
+ sky130_fd_sc_hd__dfxtp_1
Xmem_top_ipin_14.sky130_fd_sc_hd__dfxtp_1_3_ clkbuf_3_7_0_mem_top_ipin_0.prog_clk/X
+ mux_top_ipin_14.mux_l3_in_1_/S VGND VGND VPWR VPWR mux_top_ipin_14.mux_l4_in_0_/S
+ sky130_fd_sc_hd__dfxtp_1
XFILLER_4_41 VGND VGND VPWR VPWR sky130_fd_sc_hd__fill_2
XFILLER_4_52 VGND VGND VPWR VPWR sky130_fd_sc_hd__fill_2
XFILLER_4_63 VGND VGND VPWR VPWR sky130_fd_sc_hd__fill_2
Xmux_top_ipin_2.mux_l1_in_0_ chanx_right_in[0] chanx_left_in[0] mux_top_ipin_2.mux_l1_in_0_/S
+ VGND VGND VPWR VPWR mux_top_ipin_2.mux_l1_in_0_/X sky130_fd_sc_hd__mux2_1
Xmem_top_ipin_1.sky130_fd_sc_hd__dfxtp_1_2_ clkbuf_3_0_0_mem_top_ipin_0.prog_clk/X
+ mux_top_ipin_1.mux_l2_in_0_/S VGND VGND VPWR VPWR mux_top_ipin_1.mux_l3_in_0_/S
+ sky130_fd_sc_hd__dfxtp_1
XFILLER_1_184 VGND VGND VPWR VPWR sky130_fd_sc_hd__decap_6
X_41_ chanx_right_in[6] VGND VGND VPWR VPWR chanx_left_out[6] sky130_fd_sc_hd__buf_2
XFILLER_18_28 VGND VGND VPWR VPWR sky130_fd_sc_hd__decap_3
XFILLER_18_17 VGND VGND VPWR VPWR sky130_fd_sc_hd__fill_2
Xmem_top_ipin_11.sky130_fd_sc_hd__dfxtp_1_2_ clkbuf_3_4_0_mem_top_ipin_0.prog_clk/X
+ mux_top_ipin_11.mux_l2_in_1_/S VGND VGND VPWR VPWR mux_top_ipin_11.mux_l3_in_0_/S
+ sky130_fd_sc_hd__dfxtp_1
X_24_ VGND VGND VPWR VPWR _24_/HI _24_/LO sky130_fd_sc_hd__conb_1
XFILLER_19_147 VGND VGND VPWR VPWR sky130_fd_sc_hd__decap_12
XFILLER_19_82 VGND VGND VPWR VPWR sky130_fd_sc_hd__decap_6
XFILLER_19_71 VGND VGND VPWR VPWR sky130_fd_sc_hd__fill_2
XFILLER_19_60 VGND VGND VPWR VPWR sky130_fd_sc_hd__fill_1
Xmem_top_ipin_7.sky130_fd_sc_hd__dfxtp_1_3_ clkbuf_3_3_0_mem_top_ipin_0.prog_clk/X
+ mux_top_ipin_7.mux_l3_in_1_/S VGND VGND VPWR VPWR mux_top_ipin_7.mux_l4_in_0_/S
+ sky130_fd_sc_hd__dfxtp_1
Xmux_top_ipin_0.sky130_fd_sc_hd__buf_4_0_ mux_top_ipin_0.mux_l4_in_0_/X VGND VGND
+ VPWR VPWR bottom_grid_pin_0_ sky130_fd_sc_hd__buf_4
Xmux_top_ipin_14.mux_l2_in_0_ chanx_left_in[2] mux_top_ipin_14.mux_l1_in_0_/X mux_top_ipin_14.mux_l2_in_1_/S
+ VGND VGND VPWR VPWR mux_top_ipin_14.mux_l2_in_0_/X sky130_fd_sc_hd__mux2_1
XPHY_112 VGND VPWR sky130_fd_sc_hd__tapvpwrvgnd_1
XPHY_101 VGND VPWR sky130_fd_sc_hd__tapvpwrvgnd_1
Xmux_top_ipin_7.mux_l1_in_0_ chanx_right_in[1] chanx_left_in[1] mux_top_ipin_7.mux_l1_in_2_/S
+ VGND VGND VPWR VPWR mux_top_ipin_7.mux_l1_in_0_/X sky130_fd_sc_hd__mux2_1
XPHY_3 VGND VGND VPWR VPWR sky130_fd_sc_hd__decap_3
XFILLER_7_52 VGND VGND VPWR VPWR sky130_fd_sc_hd__fill_2
XFILLER_16_72 VGND VGND VPWR VPWR sky130_fd_sc_hd__fill_2
Xmem_top_ipin_4.sky130_fd_sc_hd__dfxtp_1_2_ clkbuf_3_2_0_mem_top_ipin_0.prog_clk/X
+ mux_top_ipin_4.mux_l2_in_2_/S VGND VGND VPWR VPWR mux_top_ipin_4.mux_l3_in_0_/S
+ sky130_fd_sc_hd__dfxtp_1
XFILLER_12_164 VGND VGND VPWR VPWR sky130_fd_sc_hd__fill_2
XFILLER_12_19 VGND VGND VPWR VPWR sky130_fd_sc_hd__fill_2
XFILLER_5_149 VGND VGND VPWR VPWR sky130_fd_sc_hd__decap_3
Xmem_top_ipin_14.sky130_fd_sc_hd__dfxtp_1_2_ clkbuf_3_7_0_mem_top_ipin_0.prog_clk/X
+ mux_top_ipin_14.mux_l2_in_1_/S VGND VGND VPWR VPWR mux_top_ipin_14.mux_l3_in_1_/S
+ sky130_fd_sc_hd__dfxtp_1
XFILLER_4_171 VGND VGND VPWR VPWR sky130_fd_sc_hd__decap_3
XFILLER_2_108 VGND VGND VPWR VPWR sky130_fd_sc_hd__fill_2
Xmem_top_ipin_1.sky130_fd_sc_hd__dfxtp_1_1_ clkbuf_3_1_0_mem_top_ipin_0.prog_clk/X
+ mux_top_ipin_1.mux_l1_in_0_/S VGND VGND VPWR VPWR mux_top_ipin_1.mux_l2_in_0_/S
+ sky130_fd_sc_hd__dfxtp_1
XFILLER_13_62 VGND VGND VPWR VPWR sky130_fd_sc_hd__fill_2
X_40_ chanx_right_in[5] VGND VGND VPWR VPWR chanx_left_out[5] sky130_fd_sc_hd__buf_2
Xclkbuf_1_0_0_mem_top_ipin_0.prog_clk clkbuf_0_mem_top_ipin_0.prog_clk/X VGND VGND
+ VPWR VPWR clkbuf_2_1_0_mem_top_ipin_0.prog_clk/A sky130_fd_sc_hd__clkbuf_1
XFILLER_1_7 VGND VGND VPWR VPWR sky130_fd_sc_hd__fill_1
X_23_ VGND VGND VPWR VPWR _23_/HI _23_/LO sky130_fd_sc_hd__conb_1
Xmem_top_ipin_11.sky130_fd_sc_hd__dfxtp_1_1_ clkbuf_3_7_0_mem_top_ipin_0.prog_clk/X
+ mux_top_ipin_11.mux_l1_in_2_/S VGND VGND VPWR VPWR mux_top_ipin_11.mux_l2_in_1_/S
+ sky130_fd_sc_hd__dfxtp_1
XFILLER_19_159 VGND VGND VPWR VPWR sky130_fd_sc_hd__decap_8
Xmem_top_ipin_7.sky130_fd_sc_hd__dfxtp_1_2_ clkbuf_3_6_0_mem_top_ipin_0.prog_clk/X
+ mux_top_ipin_7.mux_l2_in_3_/S VGND VGND VPWR VPWR mux_top_ipin_7.mux_l3_in_1_/S
+ sky130_fd_sc_hd__dfxtp_1
XFILLER_10_41 VGND VGND VPWR VPWR sky130_fd_sc_hd__fill_2
XPHY_113 VGND VPWR sky130_fd_sc_hd__tapvpwrvgnd_1
XFILLER_21_62 VGND VGND VPWR VPWR sky130_fd_sc_hd__decap_12
XFILLER_21_51 VGND VGND VPWR VPWR sky130_fd_sc_hd__decap_3
XPHY_102 VGND VPWR sky130_fd_sc_hd__tapvpwrvgnd_1
XPHY_4 VGND VGND VPWR VPWR sky130_fd_sc_hd__decap_3
Xmem_top_ipin_4.sky130_fd_sc_hd__dfxtp_1_1_ clkbuf_3_2_0_mem_top_ipin_0.prog_clk/X
+ mux_top_ipin_4.mux_l1_in_2_/S VGND VGND VPWR VPWR mux_top_ipin_4.mux_l2_in_2_/S
+ sky130_fd_sc_hd__dfxtp_1
XFILLER_12_154 VGND VGND VPWR VPWR sky130_fd_sc_hd__fill_1
XFILLER_12_132 VGND VGND VPWR VPWR sky130_fd_sc_hd__fill_2
XFILLER_12_121 VGND VGND VPWR VPWR sky130_fd_sc_hd__fill_2
XFILLER_12_110 VGND VGND VPWR VPWR sky130_fd_sc_hd__fill_2
Xmux_top_ipin_14.mux_l1_in_0_ chanx_right_in[0] chanx_left_in[0] mux_top_ipin_14.mux_l1_in_0_/S
+ VGND VGND VPWR VPWR mux_top_ipin_14.mux_l1_in_0_/X sky130_fd_sc_hd__mux2_1
Xmem_top_ipin_14.sky130_fd_sc_hd__dfxtp_1_1_ clkbuf_3_7_0_mem_top_ipin_0.prog_clk/X
+ mux_top_ipin_14.mux_l1_in_0_/S VGND VGND VPWR VPWR mux_top_ipin_14.mux_l2_in_1_/S
+ sky130_fd_sc_hd__dfxtp_1
XFILLER_4_183 VGND VGND VPWR VPWR sky130_fd_sc_hd__decap_6
XFILLER_13_85 VGND VGND VPWR VPWR sky130_fd_sc_hd__fill_2
XFILLER_13_41 VGND VGND VPWR VPWR sky130_fd_sc_hd__fill_2
XFILLER_13_30 VGND VGND VPWR VPWR sky130_fd_sc_hd__fill_2
Xmem_top_ipin_1.sky130_fd_sc_hd__dfxtp_1_0_ clkbuf_3_0_0_mem_top_ipin_0.prog_clk/X
+ mux_top_ipin_0.mux_l4_in_0_/S VGND VGND VPWR VPWR mux_top_ipin_1.mux_l1_in_0_/S
+ sky130_fd_sc_hd__dfxtp_1
X_22_ VGND VGND VPWR VPWR _22_/HI _22_/LO sky130_fd_sc_hd__conb_1
Xmem_top_ipin_11.sky130_fd_sc_hd__dfxtp_1_0_ clkbuf_3_5_0_mem_top_ipin_0.prog_clk/X
+ mux_top_ipin_10.mux_l4_in_0_/S VGND VGND VPWR VPWR mux_top_ipin_11.mux_l1_in_2_/S
+ sky130_fd_sc_hd__dfxtp_1
Xmem_top_ipin_7.sky130_fd_sc_hd__dfxtp_1_1_ clkbuf_3_3_0_mem_top_ipin_0.prog_clk/X
+ mux_top_ipin_7.mux_l1_in_2_/S VGND VGND VPWR VPWR mux_top_ipin_7.mux_l2_in_3_/S
+ sky130_fd_sc_hd__dfxtp_1
XFILLER_18_3 VGND VGND VPWR VPWR sky130_fd_sc_hd__decap_4
XPHY_114 VGND VPWR sky130_fd_sc_hd__tapvpwrvgnd_1
XFILLER_21_74 VGND VGND VPWR VPWR sky130_fd_sc_hd__decap_12
XPHY_103 VGND VPWR sky130_fd_sc_hd__tapvpwrvgnd_1
XPHY_5 VGND VGND VPWR VPWR sky130_fd_sc_hd__decap_3
XFILLER_21_188 VGND VGND VPWR VPWR sky130_fd_sc_hd__fill_2
Xmem_top_ipin_4.sky130_fd_sc_hd__dfxtp_1_0_ clkbuf_3_2_0_mem_top_ipin_0.prog_clk/X
+ mux_top_ipin_3.mux_l4_in_0_/S VGND VGND VPWR VPWR mux_top_ipin_4.mux_l1_in_2_/S
+ sky130_fd_sc_hd__dfxtp_1
XFILLER_12_188 VGND VGND VPWR VPWR sky130_fd_sc_hd__fill_2
XFILLER_8_137 VGND VGND VPWR VPWR sky130_fd_sc_hd__fill_2
XFILLER_8_148 VGND VGND VPWR VPWR sky130_fd_sc_hd__decap_4
XFILLER_7_181 VGND VGND VPWR VPWR sky130_fd_sc_hd__fill_2
Xmem_top_ipin_14.sky130_fd_sc_hd__dfxtp_1_0_ clkbuf_3_7_0_mem_top_ipin_0.prog_clk/X
+ mux_top_ipin_13.mux_l4_in_0_/S VGND VGND VPWR VPWR mux_top_ipin_14.mux_l1_in_0_/S
+ sky130_fd_sc_hd__dfxtp_1
XFILLER_4_151 VGND VGND VPWR VPWR sky130_fd_sc_hd__fill_2
Xmux_top_ipin_3.mux_l2_in_3_ _29_/HI chanx_right_in[19] mux_top_ipin_3.mux_l2_in_2_/S
+ VGND VGND VPWR VPWR mux_top_ipin_3.mux_l2_in_3_/X sky130_fd_sc_hd__mux2_1
Xclkbuf_3_1_0_mem_top_ipin_0.prog_clk clkbuf_2_0_0_mem_top_ipin_0.prog_clk/X VGND
+ VGND VPWR VPWR clkbuf_3_1_0_mem_top_ipin_0.prog_clk/X sky130_fd_sc_hd__clkbuf_1
XFILLER_1_132 VGND VGND VPWR VPWR sky130_fd_sc_hd__decap_4
XFILLER_1_121 VGND VGND VPWR VPWR sky130_fd_sc_hd__fill_1
X_21_ VGND VGND VPWR VPWR _21_/HI _21_/LO sky130_fd_sc_hd__conb_1
XFILLER_19_30 VGND VGND VPWR VPWR sky130_fd_sc_hd__decap_12
Xmem_top_ipin_7.sky130_fd_sc_hd__dfxtp_1_0_ clkbuf_3_3_0_mem_top_ipin_0.prog_clk/X
+ mux_top_ipin_6.mux_l4_in_0_/S VGND VGND VPWR VPWR mux_top_ipin_7.mux_l1_in_2_/S
+ sky130_fd_sc_hd__dfxtp_1
Xmux_top_ipin_3.mux_l4_in_0_ mux_top_ipin_3.mux_l3_in_1_/X mux_top_ipin_3.mux_l3_in_0_/X
+ mux_top_ipin_3.mux_l4_in_0_/S VGND VGND VPWR VPWR mux_top_ipin_3.mux_l4_in_0_/X
+ sky130_fd_sc_hd__mux2_1
XPHY_115 VGND VPWR sky130_fd_sc_hd__tapvpwrvgnd_1
XPHY_104 VGND VPWR sky130_fd_sc_hd__tapvpwrvgnd_1
XFILLER_16_109 VGND VGND VPWR VPWR sky130_fd_sc_hd__fill_2
XFILLER_21_86 VGND VGND VPWR VPWR sky130_fd_sc_hd__decap_4
XFILLER_21_31 VGND VGND VPWR VPWR sky130_fd_sc_hd__decap_12
XFILLER_15_164 VGND VGND VPWR VPWR sky130_fd_sc_hd__fill_2
XPHY_6 VGND VGND VPWR VPWR sky130_fd_sc_hd__decap_3
XFILLER_21_123 VGND VGND VPWR VPWR sky130_fd_sc_hd__decap_12
Xmux_top_ipin_8.mux_l2_in_3_ _18_/HI chanx_right_in[18] mux_top_ipin_8.mux_l2_in_0_/S
+ VGND VGND VPWR VPWR mux_top_ipin_8.mux_l2_in_3_/X sky130_fd_sc_hd__mux2_1
Xmux_top_ipin_3.mux_l3_in_1_ mux_top_ipin_3.mux_l2_in_3_/X mux_top_ipin_3.mux_l2_in_2_/X
+ mux_top_ipin_3.mux_l3_in_0_/S VGND VGND VPWR VPWR mux_top_ipin_3.mux_l3_in_1_/X
+ sky130_fd_sc_hd__mux2_1
XFILLER_7_160 VGND VGND VPWR VPWR sky130_fd_sc_hd__decap_4
XFILLER_4_89 VGND VGND VPWR VPWR sky130_fd_sc_hd__decap_3
XFILLER_4_163 VGND VGND VPWR VPWR sky130_fd_sc_hd__fill_2
Xmux_top_ipin_3.mux_l2_in_2_ chanx_left_in[19] chanx_right_in[13] mux_top_ipin_3.mux_l2_in_2_/S
+ VGND VGND VPWR VPWR mux_top_ipin_3.mux_l2_in_2_/X sky130_fd_sc_hd__mux2_1
Xmux_top_ipin_8.mux_l4_in_0_ mux_top_ipin_8.mux_l3_in_1_/X mux_top_ipin_8.mux_l3_in_0_/X
+ mux_top_ipin_8.mux_l4_in_0_/S VGND VGND VPWR VPWR mux_top_ipin_8.mux_l4_in_0_/X
+ sky130_fd_sc_hd__mux2_1
Xmux_top_ipin_10.mux_l2_in_3_ _22_/HI chanx_right_in[14] mux_top_ipin_10.mux_l2_in_2_/S
+ VGND VGND VPWR VPWR mux_top_ipin_10.mux_l2_in_3_/X sky130_fd_sc_hd__mux2_1
Xclkbuf_2_2_0_mem_top_ipin_0.prog_clk clkbuf_2_3_0_mem_top_ipin_0.prog_clk/A VGND
+ VGND VPWR VPWR clkbuf_2_2_0_mem_top_ipin_0.prog_clk/X sky130_fd_sc_hd__clkbuf_1
X_20_ VGND VGND VPWR VPWR _20_/HI _20_/LO sky130_fd_sc_hd__conb_1
XFILLER_19_42 VGND VGND VPWR VPWR sky130_fd_sc_hd__decap_12
XFILLER_10_99 VGND VGND VPWR VPWR sky130_fd_sc_hd__fill_1
XFILLER_10_88 VGND VGND VPWR VPWR sky130_fd_sc_hd__decap_4
XFILLER_10_77 VGND VGND VPWR VPWR sky130_fd_sc_hd__fill_2
Xmux_top_ipin_8.mux_l3_in_1_ mux_top_ipin_8.mux_l2_in_3_/X mux_top_ipin_8.mux_l2_in_2_/X
+ mux_top_ipin_8.mux_l3_in_0_/S VGND VGND VPWR VPWR mux_top_ipin_8.mux_l3_in_1_/X