* NGSPICE file created from cbx_1__0_.ext - technology: EFS8A

* Black-box entry subcircuit for scs8hd_fill_1 abstract view
.subckt scs8hd_fill_1 vgnd vpwr
.ends

* Black-box entry subcircuit for scs8hd_diode_2 abstract view
.subckt scs8hd_diode_2 DIODE vgnd vpwr
.ends

* Black-box entry subcircuit for scs8hd_fill_2 abstract view
.subckt scs8hd_fill_2 vpwr vgnd
.ends

* Black-box entry subcircuit for scs8hd_decap_4 abstract view
.subckt scs8hd_decap_4 vgnd vpwr
.ends

* Black-box entry subcircuit for scs8hd_ebufn_2 abstract view
.subckt scs8hd_ebufn_2 A TEB Z vgnd vpwr
.ends

* Black-box entry subcircuit for scs8hd_decap_3 abstract view
.subckt scs8hd_decap_3 vgnd vpwr
.ends

* Black-box entry subcircuit for scs8hd_lpflow_inputisolatch_1 abstract view
.subckt scs8hd_lpflow_inputisolatch_1 D Q SLEEPB vgnd vpwr
.ends

* Black-box entry subcircuit for scs8hd_decap_8 abstract view
.subckt scs8hd_decap_8 vgnd vpwr
.ends

* Black-box entry subcircuit for scs8hd_decap_6 abstract view
.subckt scs8hd_decap_6 vgnd vpwr
.ends

* Black-box entry subcircuit for scs8hd_buf_2 abstract view
.subckt scs8hd_buf_2 A X vgnd vpwr
.ends

* Black-box entry subcircuit for scs8hd_nor2_4 abstract view
.subckt scs8hd_nor2_4 A B Y vgnd vpwr
.ends

* Black-box entry subcircuit for scs8hd_decap_12 abstract view
.subckt scs8hd_decap_12 vgnd vpwr
.ends

* Black-box entry subcircuit for scs8hd_inv_1 abstract view
.subckt scs8hd_inv_1 A Y vgnd vpwr
.ends

* Black-box entry subcircuit for scs8hd_tapvpwrvgnd_1 abstract view
.subckt scs8hd_tapvpwrvgnd_1 vgnd vpwr
.ends

* Black-box entry subcircuit for scs8hd_conb_1 abstract view
.subckt scs8hd_conb_1 HI LO vgnd vpwr
.ends

* Black-box entry subcircuit for scs8hd_buf_1 abstract view
.subckt scs8hd_buf_1 A X vgnd vpwr
.ends

* Black-box entry subcircuit for scs8hd_or3_4 abstract view
.subckt scs8hd_or3_4 A B C X vgnd vpwr
.ends

* Black-box entry subcircuit for scs8hd_inv_8 abstract view
.subckt scs8hd_inv_8 A Y vgnd vpwr
.ends

* Black-box entry subcircuit for scs8hd_or4_4 abstract view
.subckt scs8hd_or4_4 A B C D X vgnd vpwr
.ends

* Black-box entry subcircuit for scs8hd_nand3_4 abstract view
.subckt scs8hd_nand3_4 A B C Y vgnd vpwr
.ends

* Black-box entry subcircuit for scs8hd_or2_4 abstract view
.subckt scs8hd_or2_4 A B X vgnd vpwr
.ends

* Black-box entry subcircuit for scs8hd_nor4_4 abstract view
.subckt scs8hd_nor4_4 A B C D Y vgnd vpwr
.ends

.subckt cbx_1__0_ address[0] address[1] address[2] address[3] address[4] address[5]
+ address[6] bottom_grid_pin_0_ bottom_grid_pin_10_ bottom_grid_pin_12_ bottom_grid_pin_14_
+ bottom_grid_pin_2_ bottom_grid_pin_4_ bottom_grid_pin_6_ bottom_grid_pin_8_ chanx_left_in[0]
+ chanx_left_in[1] chanx_left_in[2] chanx_left_in[3] chanx_left_in[4] chanx_left_in[5]
+ chanx_left_in[6] chanx_left_in[7] chanx_left_in[8] chanx_left_out[0] chanx_left_out[1]
+ chanx_left_out[2] chanx_left_out[3] chanx_left_out[4] chanx_left_out[5] chanx_left_out[6]
+ chanx_left_out[7] chanx_left_out[8] chanx_right_in[0] chanx_right_in[1] chanx_right_in[2]
+ chanx_right_in[3] chanx_right_in[4] chanx_right_in[5] chanx_right_in[6] chanx_right_in[7]
+ chanx_right_in[8] chanx_right_out[0] chanx_right_out[1] chanx_right_out[2] chanx_right_out[3]
+ chanx_right_out[4] chanx_right_out[5] chanx_right_out[6] chanx_right_out[7] chanx_right_out[8]
+ data_in enable top_grid_pin_14_ top_grid_pin_2_ top_grid_pin_6_ vpwr vgnd
XFILLER_18_406 vgnd vpwr scs8hd_fill_1
XANTENNA_mux_top_ipin_3.mux_l1_in_1_.TGATE_2_.scs8hd_ebufn_2_A mux_top_ipin_3.INVTX1_5_.scs8hd_inv_1/Y
+ vgnd vpwr scs8hd_diode_2
XFILLER_13_199 vpwr vgnd scs8hd_fill_2
XFILLER_13_177 vgnd vpwr scs8hd_decap_4
Xmux_top_ipin_7.mux_l1_in_0_.TGATE_0_.scs8hd_ebufn_2 mux_top_ipin_7.INVTX1_0_.scs8hd_inv_1/Y
+ mem_top_ipin_7.LATCH_0_.latch/Q mux_top_ipin_7.mux_l1_in_0_.TGATE_2_.scs8hd_ebufn_2/Z
+ vgnd vpwr scs8hd_ebufn_2
XFILLER_9_148 vpwr vgnd scs8hd_fill_2
XANTENNA__113__B _108_/X vgnd vpwr scs8hd_diode_2
XFILLER_3_12 vpwr vgnd scs8hd_fill_2
XFILLER_3_34 vgnd vpwr scs8hd_decap_3
XFILLER_3_56 vgnd vpwr scs8hd_decap_3
XFILLER_5_332 vpwr vgnd scs8hd_fill_2
XFILLER_5_365 vgnd vpwr scs8hd_fill_1
XFILLER_5_376 vpwr vgnd scs8hd_fill_2
XFILLER_8_181 vgnd vpwr scs8hd_decap_3
Xmem_bottom_ipin_2.LATCH_1_.latch data_in mem_bottom_ipin_2.LATCH_1_.latch/Q _169_/Y
+ vgnd vpwr scs8hd_lpflow_inputisolatch_1
XFILLER_10_125 vgnd vpwr scs8hd_decap_8
XANTENNA_mem_top_ipin_3.LATCH_3_.latch_SLEEPB _111_/Y vgnd vpwr scs8hd_diode_2
XFILLER_18_269 vgnd vpwr scs8hd_decap_6
XANTENNA__124__A _124_/A vgnd vpwr scs8hd_diode_2
Xmux_top_ipin_4.mux_l2_in_0_.TGATE_0_.scs8hd_ebufn_2 mux_top_ipin_4.mux_l1_in_0_.TGATE_0_.scs8hd_ebufn_2/Z
+ mem_top_ipin_4.LATCH_3_.latch/Q mux_top_ipin_4.tap_buf4_0_.scs8hd_inv_1/A vgnd vpwr
+ scs8hd_ebufn_2
XANTENNA_mux_bottom_ipin_1.mux_l1_in_0_.TGATE_1_.scs8hd_ebufn_2_TEB _154_/Y vgnd vpwr
+ scs8hd_diode_2
XANTENNA_mux_top_ipin_6.tap_buf4_0_.scs8hd_inv_1_A mux_top_ipin_6.tap_buf4_0_.scs8hd_inv_1/A
+ vgnd vpwr scs8hd_diode_2
X_200_ chanx_left_in[7] chanx_right_out[7] vgnd vpwr scs8hd_buf_2
X_131_ _102_/X _126_/X _131_/Y vgnd vpwr scs8hd_nor2_4
XFILLER_2_176 vpwr vgnd scs8hd_fill_2
XANTENNA_mem_top_ipin_0.LATCH_3_.latch_D data_in vgnd vpwr scs8hd_diode_2
XFILLER_14_261 vgnd vpwr scs8hd_decap_4
XANTENNA__119__A _111_/A vgnd vpwr scs8hd_diode_2
XFILLER_9_22 vpwr vgnd scs8hd_fill_2
XFILLER_9_77 vgnd vpwr scs8hd_decap_4
XFILLER_9_99 vpwr vgnd scs8hd_fill_2
XANTENNA_mem_top_ipin_1.LATCH_1_.latch_D data_in vgnd vpwr scs8hd_diode_2
XFILLER_20_242 vgnd vpwr scs8hd_decap_6
XFILLER_18_86 vgnd vpwr scs8hd_decap_6
XFILLER_18_20 vgnd vpwr scs8hd_decap_8
XFILLER_11_253 vpwr vgnd scs8hd_fill_2
Xmem_top_ipin_5.LATCH_0_.latch data_in mem_top_ipin_5.LATCH_0_.latch/Q _132_/Y vgnd
+ vpwr scs8hd_lpflow_inputisolatch_1
XFILLER_7_235 vpwr vgnd scs8hd_fill_2
X_114_ _104_/X _108_/X _114_/Y vgnd vpwr scs8hd_nor2_4
XFILLER_11_297 vpwr vgnd scs8hd_fill_2
XANTENNA__121__B _122_/B vgnd vpwr scs8hd_diode_2
XFILLER_19_353 vgnd vpwr scs8hd_decap_12
XANTENNA_mux_top_ipin_4.mux_l2_in_0_.TGATE_2_.scs8hd_ebufn_2_A _186_/HI vgnd vpwr
+ scs8hd_diode_2
XANTENNA_mux_top_ipin_2.INVTX1_1_.scs8hd_inv_1_A chanx_right_in[0] vgnd vpwr scs8hd_diode_2
XFILLER_20_32 vgnd vpwr scs8hd_decap_12
XFILLER_4_205 vpwr vgnd scs8hd_fill_2
Xmux_top_ipin_0.mux_l1_in_1_.TGATE_0_.scs8hd_ebufn_2 mux_top_ipin_0.INVTX1_3_.scs8hd_inv_1/Y
+ mem_top_ipin_0.LATCH_0_.latch/Q mux_top_ipin_0.mux_l1_in_1_.TGATE_2_.scs8hd_ebufn_2/Z
+ vgnd vpwr scs8hd_ebufn_2
XFILLER_20_87 vgnd vpwr scs8hd_decap_6
XFILLER_16_389 vgnd vpwr scs8hd_decap_8
Xmem_top_ipin_7.LATCH_3_.latch data_in mem_top_ipin_7.LATCH_3_.latch/Q _145_/Y vgnd
+ vpwr scs8hd_lpflow_inputisolatch_1
XFILLER_6_23 vpwr vgnd scs8hd_fill_2
XANTENNA_mux_top_ipin_6.INVTX1_2_.scs8hd_inv_1_A chanx_left_in[4] vgnd vpwr scs8hd_diode_2
XANTENNA__132__A _104_/X vgnd vpwr scs8hd_diode_2
XANTENNA_mux_top_ipin_0.mux_l1_in_0_.TGATE_2_.scs8hd_ebufn_2_A mux_top_ipin_0.INVTX1_2_.scs8hd_inv_1/Y
+ vgnd vpwr scs8hd_diode_2
XFILLER_6_67 vgnd vpwr scs8hd_decap_8
Xmux_bottom_ipin_0.mux_l2_in_0_.TGATE_2_.scs8hd_ebufn_2 _179_/HI mem_bottom_ipin_0.LATCH_5_.latch/Q
+ mux_bottom_ipin_0.tap_buf4_0_.scs8hd_inv_1/A vgnd vpwr scs8hd_ebufn_2
XANTENNA_mem_top_ipin_1.LATCH_4_.latch_SLEEPB _078_/Y vgnd vpwr scs8hd_diode_2
Xmux_bottom_ipin_0.INVTX1_3_.scs8hd_inv_1 chanx_right_in[4] mux_bottom_ipin_0.INVTX1_3_.scs8hd_inv_1/Y
+ vgnd vpwr scs8hd_inv_1
XFILLER_13_348 vpwr vgnd scs8hd_fill_2
XANTENNA_mem_top_ipin_4.LATCH_5_.latch_D data_in vgnd vpwr scs8hd_diode_2
XFILLER_9_319 vpwr vgnd scs8hd_fill_2
XFILLER_0_274 vpwr vgnd scs8hd_fill_2
XANTENNA_mem_top_ipin_5.LATCH_3_.latch_D data_in vgnd vpwr scs8hd_diode_2
XPHY_170 vgnd vpwr scs8hd_tapvpwrvgnd_1
XFILLER_16_164 vgnd vpwr scs8hd_decap_4
XFILLER_16_120 vgnd vpwr scs8hd_decap_4
XANTENNA__127__A _068_/X vgnd vpwr scs8hd_diode_2
XPHY_181 vgnd vpwr scs8hd_tapvpwrvgnd_1
XANTENNA_mem_top_ipin_6.LATCH_1_.latch_D data_in vgnd vpwr scs8hd_diode_2
XFILLER_12_370 vgnd vpwr scs8hd_decap_8
XFILLER_13_156 vpwr vgnd scs8hd_fill_2
XFILLER_9_116 vpwr vgnd scs8hd_fill_2
Xmux_top_ipin_4.mux_l1_in_1_.TGATE_1_.scs8hd_ebufn_2 mux_top_ipin_4.INVTX1_4_.scs8hd_inv_1/Y
+ mem_top_ipin_4.LATCH_1_.latch/Q mux_top_ipin_4.mux_l1_in_1_.TGATE_0_.scs8hd_ebufn_2/Z
+ vgnd vpwr scs8hd_ebufn_2
XANTENNA_mux_top_ipin_0.mux_l2_in_0_.TGATE_0_.scs8hd_ebufn_2_A mux_top_ipin_0.mux_l1_in_0_.TGATE_0_.scs8hd_ebufn_2/Z
+ vgnd vpwr scs8hd_diode_2
Xmux_top_ipin_5.INVTX1_0_.scs8hd_inv_1 chanx_left_in[3] mux_top_ipin_5.INVTX1_0_.scs8hd_inv_1/Y
+ vgnd vpwr scs8hd_inv_1
XANTENNA_mux_bottom_ipin_1.mux_l1_in_0_.TGATE_1_.scs8hd_ebufn_2_A mux_bottom_ipin_1.INVTX1_1_.scs8hd_inv_1/Y
+ vgnd vpwr scs8hd_diode_2
XANTENNA_mux_top_ipin_7.mux_l1_in_0_.TGATE_1_.scs8hd_ebufn_2_A mux_top_ipin_7.INVTX1_1_.scs8hd_inv_1/Y
+ vgnd vpwr scs8hd_diode_2
XFILLER_12_55 vgnd vpwr scs8hd_decap_6
XFILLER_2_325 vgnd vpwr scs8hd_decap_8
XFILLER_18_215 vgnd vpwr scs8hd_decap_12
XANTENNA__124__B address[5] vgnd vpwr scs8hd_diode_2
XFILLER_5_174 vpwr vgnd scs8hd_fill_2
XANTENNA__140__A _104_/X vgnd vpwr scs8hd_diode_2
XFILLER_1_391 vgnd vpwr scs8hd_decap_12
Xmux_top_ipin_6.INVTX1_4_.scs8hd_inv_1 chanx_left_in[8] mux_top_ipin_6.INVTX1_4_.scs8hd_inv_1/Y
+ vgnd vpwr scs8hd_inv_1
XFILLER_17_292 vgnd vpwr scs8hd_decap_12
Xmux_top_ipin_0.tap_buf4_0_.scs8hd_inv_1 mux_top_ipin_0.tap_buf4_0_.scs8hd_inv_1/A
+ bottom_grid_pin_0_ vgnd vpwr scs8hd_inv_1
XANTENNA_mux_top_ipin_4.mux_l2_in_0_.TGATE_2_.scs8hd_ebufn_2_TEB mem_top_ipin_4.LATCH_5_.latch/Q
+ vgnd vpwr scs8hd_diode_2
X_130_ _138_/A _126_/X _130_/Y vgnd vpwr scs8hd_nor2_4
XFILLER_11_402 vgnd vpwr scs8hd_decap_4
XFILLER_0_58 vpwr vgnd scs8hd_fill_2
XANTENNA__119__B _122_/B vgnd vpwr scs8hd_diode_2
XFILLER_14_284 vgnd vpwr scs8hd_decap_4
XANTENNA__135__A _068_/X vgnd vpwr scs8hd_diode_2
XFILLER_9_45 vpwr vgnd scs8hd_fill_2
XFILLER_9_56 vgnd vpwr scs8hd_decap_3
XFILLER_18_32 vgnd vpwr scs8hd_decap_12
X_113_ _102_/X _108_/X _113_/Y vgnd vpwr scs8hd_nor2_4
XFILLER_7_203 vpwr vgnd scs8hd_fill_2
XFILLER_11_287 vpwr vgnd scs8hd_fill_2
XFILLER_7_258 vpwr vgnd scs8hd_fill_2
XFILLER_19_365 vgnd vpwr scs8hd_fill_1
XFILLER_6_291 vgnd vpwr scs8hd_decap_8
Xmux_top_ipin_6.mux_l1_in_0_.TGATE_0_.scs8hd_ebufn_2 mux_top_ipin_6.INVTX1_0_.scs8hd_inv_1/Y
+ mem_top_ipin_6.LATCH_0_.latch/Q mux_top_ipin_6.mux_l1_in_0_.TGATE_2_.scs8hd_ebufn_2/Z
+ vgnd vpwr scs8hd_ebufn_2
XFILLER_20_44 vgnd vpwr scs8hd_decap_12
XFILLER_16_324 vgnd vpwr scs8hd_fill_1
XANTENNA__132__B _126_/X vgnd vpwr scs8hd_diode_2
XFILLER_3_294 vpwr vgnd scs8hd_fill_2
XFILLER_19_195 vgnd vpwr scs8hd_decap_12
XFILLER_19_184 vgnd vpwr scs8hd_decap_3
XFILLER_13_316 vpwr vgnd scs8hd_fill_2
XANTENNA_mem_bottom_ipin_0.LATCH_5_.latch_D data_in vgnd vpwr scs8hd_diode_2
XFILLER_15_77 vpwr vgnd scs8hd_fill_2
Xmux_top_ipin_3.mux_l2_in_0_.TGATE_0_.scs8hd_ebufn_2 mux_top_ipin_3.mux_l1_in_0_.TGATE_2_.scs8hd_ebufn_2/Z
+ mem_top_ipin_3.LATCH_3_.latch/Q mux_top_ipin_3.tap_buf4_0_.scs8hd_inv_1/A vgnd vpwr
+ scs8hd_ebufn_2
XFILLER_0_242 vgnd vpwr scs8hd_decap_4
XFILLER_0_231 vpwr vgnd scs8hd_fill_2
XPHY_182 vgnd vpwr scs8hd_tapvpwrvgnd_1
XPHY_171 vgnd vpwr scs8hd_tapvpwrvgnd_1
XPHY_160 vgnd vpwr scs8hd_tapvpwrvgnd_1
XFILLER_16_187 vpwr vgnd scs8hd_fill_2
XFILLER_16_154 vgnd vpwr scs8hd_decap_3
XFILLER_12_360 vgnd vpwr scs8hd_fill_1
XFILLER_12_382 vgnd vpwr scs8hd_decap_12
XANTENNA__127__B _126_/X vgnd vpwr scs8hd_diode_2
XANTENNA__143__A _068_/A vgnd vpwr scs8hd_diode_2
XFILLER_8_386 vgnd vpwr scs8hd_decap_8
XANTENNA_mem_bottom_ipin_2.LATCH_1_.latch_D data_in vgnd vpwr scs8hd_diode_2
XANTENNA_mux_top_ipin_6.mux_l2_in_0_.TGATE_1_.scs8hd_ebufn_2_TEB mem_top_ipin_6.LATCH_4_.latch/Q
+ vgnd vpwr scs8hd_diode_2
Xmem_top_ipin_0.LATCH_4_.latch data_in mem_top_ipin_0.LATCH_4_.latch/Q _174_/Y vgnd
+ vpwr scs8hd_lpflow_inputisolatch_1
XFILLER_5_301 vpwr vgnd scs8hd_fill_2
XFILLER_5_367 vgnd vpwr scs8hd_decap_6
XANTENNA_mux_top_ipin_4.mux_l1_in_1_.TGATE_2_.scs8hd_ebufn_2_A mux_top_ipin_4.INVTX1_5_.scs8hd_inv_1/Y
+ vgnd vpwr scs8hd_diode_2
XANTENNA__138__A _138_/A vgnd vpwr scs8hd_diode_2
XFILLER_12_190 vgnd vpwr scs8hd_decap_3
XANTENNA_mem_top_ipin_6.LATCH_4_.latch_SLEEPB _136_/Y vgnd vpwr scs8hd_diode_2
XFILLER_2_304 vpwr vgnd scs8hd_fill_2
XFILLER_10_149 vpwr vgnd scs8hd_fill_2
XFILLER_12_23 vpwr vgnd scs8hd_fill_2
Xmux_bottom_ipin_2.mux_l1_in_0_.TGATE_2_.scs8hd_ebufn_2 mux_bottom_ipin_2.INVTX1_2_.scs8hd_inv_1/Y
+ mem_bottom_ipin_2.LATCH_2_.latch/Q mux_bottom_ipin_2.mux_l1_in_0_.TGATE_2_.scs8hd_ebufn_2/Z
+ vgnd vpwr scs8hd_ebufn_2
XFILLER_5_6 vpwr vgnd scs8hd_fill_2
XFILLER_18_227 vgnd vpwr scs8hd_decap_12
XANTENNA_mux_top_ipin_1.mux_l2_in_0_.TGATE_1_.scs8hd_ebufn_2_TEB mem_top_ipin_1.LATCH_4_.latch/Q
+ vgnd vpwr scs8hd_diode_2
Xmux_top_ipin_7.mux_l2_in_0_.TGATE_1_.scs8hd_ebufn_2 mux_top_ipin_7.mux_l1_in_1_.TGATE_0_.scs8hd_ebufn_2/Z
+ mem_top_ipin_7.LATCH_4_.latch/Q mux_top_ipin_7.tap_buf4_0_.scs8hd_inv_1/A vgnd vpwr
+ scs8hd_ebufn_2
XFILLER_5_142 vpwr vgnd scs8hd_fill_2
XANTENNA__140__B _140_/B vgnd vpwr scs8hd_diode_2
XFILLER_17_271 vgnd vpwr scs8hd_decap_12
XFILLER_17_260 vpwr vgnd scs8hd_fill_2
Xmux_top_ipin_3.INVTX1_0_.scs8hd_inv_1 chanx_left_in[1] mux_top_ipin_3.INVTX1_0_.scs8hd_inv_1/Y
+ vgnd vpwr scs8hd_inv_1
XFILLER_15_219 vgnd vpwr scs8hd_decap_12
XFILLER_2_101 vgnd vpwr scs8hd_fill_1
XFILLER_14_274 vgnd vpwr scs8hd_fill_1
XFILLER_14_241 vgnd vpwr scs8hd_decap_4
XFILLER_0_37 vpwr vgnd scs8hd_fill_2
X_189_ _189_/HI _189_/LO vgnd vpwr scs8hd_conb_1
XANTENNA__135__B _140_/B vgnd vpwr scs8hd_diode_2
XANTENNA__151__A _073_/A vgnd vpwr scs8hd_diode_2
XFILLER_20_211 vgnd vpwr scs8hd_decap_6
Xmux_top_ipin_4.INVTX1_4_.scs8hd_inv_1 chanx_left_in[7] mux_top_ipin_4.INVTX1_4_.scs8hd_inv_1/Y
+ vgnd vpwr scs8hd_inv_1
Xmem_bottom_ipin_0.LATCH_4_.latch data_in mem_bottom_ipin_0.LATCH_4_.latch/Q _158_/Y
+ vgnd vpwr scs8hd_lpflow_inputisolatch_1
XFILLER_18_44 vgnd vpwr scs8hd_decap_12
XANTENNA_mux_top_ipin_0.mux_l1_in_1_.TGATE_0_.scs8hd_ebufn_2_A mux_top_ipin_0.INVTX1_3_.scs8hd_inv_1/Y
+ vgnd vpwr scs8hd_diode_2
X_112_ _138_/A _108_/X _112_/Y vgnd vpwr scs8hd_nor2_4
XFILLER_19_377 vpwr vgnd scs8hd_fill_2
XANTENNA__146__A _138_/A vgnd vpwr scs8hd_diode_2
XANTENNA_mux_top_ipin_5.mux_l2_in_0_.TGATE_2_.scs8hd_ebufn_2_A _187_/HI vgnd vpwr
+ scs8hd_diode_2
XFILLER_20_56 vgnd vpwr scs8hd_decap_6
Xmux_top_ipin_3.mux_l1_in_1_.TGATE_1_.scs8hd_ebufn_2 mux_top_ipin_3.INVTX1_4_.scs8hd_inv_1/Y
+ mem_top_ipin_3.LATCH_1_.latch/Q mux_top_ipin_3.mux_l1_in_1_.TGATE_2_.scs8hd_ebufn_2/Z
+ vgnd vpwr scs8hd_ebufn_2
XANTENNA_mem_top_ipin_4.LATCH_5_.latch_SLEEPB _117_/Y vgnd vpwr scs8hd_diode_2
XFILLER_16_303 vgnd vpwr scs8hd_decap_3
XANTENNA_mux_top_ipin_1.INVTX1_5_.scs8hd_inv_1_A chanx_right_in[8] vgnd vpwr scs8hd_diode_2
XFILLER_3_240 vpwr vgnd scs8hd_fill_2
XFILLER_3_262 vpwr vgnd scs8hd_fill_2
XANTENNA_mux_top_ipin_1.mux_l1_in_0_.TGATE_2_.scs8hd_ebufn_2_A mux_top_ipin_1.INVTX1_2_.scs8hd_inv_1/Y
+ vgnd vpwr scs8hd_diode_2
Xmem_top_ipin_1.LATCH_0_.latch data_in mem_top_ipin_1.LATCH_0_.latch/Q _091_/Y vgnd
+ vpwr scs8hd_lpflow_inputisolatch_1
XFILLER_15_391 vgnd vpwr scs8hd_decap_12
XFILLER_15_12 vpwr vgnd scs8hd_fill_2
XFILLER_13_306 vgnd vpwr scs8hd_decap_3
XFILLER_0_287 vpwr vgnd scs8hd_fill_2
XANTENNA_mux_top_ipin_3.mux_l2_in_0_.TGATE_0_.scs8hd_ebufn_2_TEB mem_top_ipin_3.LATCH_3_.latch/Q
+ vgnd vpwr scs8hd_diode_2
XPHY_183 vgnd vpwr scs8hd_tapvpwrvgnd_1
XPHY_172 vgnd vpwr scs8hd_tapvpwrvgnd_1
XPHY_161 vgnd vpwr scs8hd_tapvpwrvgnd_1
XPHY_150 vgnd vpwr scs8hd_tapvpwrvgnd_1
XFILLER_8_332 vgnd vpwr scs8hd_fill_1
XFILLER_12_394 vgnd vpwr scs8hd_decap_3
XANTENNA__143__B _142_/X vgnd vpwr scs8hd_diode_2
XFILLER_8_398 vgnd vpwr scs8hd_decap_8
Xmem_top_ipin_3.LATCH_3_.latch data_in mem_top_ipin_3.LATCH_3_.latch/Q _111_/Y vgnd
+ vpwr scs8hd_lpflow_inputisolatch_1
XFILLER_7_90 vpwr vgnd scs8hd_fill_2
XFILLER_13_114 vpwr vgnd scs8hd_fill_2
XFILLER_13_103 vpwr vgnd scs8hd_fill_2
XFILLER_9_129 vpwr vgnd scs8hd_fill_2
XFILLER_5_313 vpwr vgnd scs8hd_fill_2
XFILLER_5_357 vpwr vgnd scs8hd_fill_2
Xmux_top_ipin_7.mux_l1_in_1_.TGATE_2_.scs8hd_ebufn_2 mux_top_ipin_7.INVTX1_5_.scs8hd_inv_1/Y
+ mem_top_ipin_7.LATCH_2_.latch/Q mux_top_ipin_7.mux_l1_in_1_.TGATE_0_.scs8hd_ebufn_2/Z
+ vgnd vpwr scs8hd_ebufn_2
XFILLER_3_48 vpwr vgnd scs8hd_fill_2
XANTENNA_mux_top_ipin_1.mux_l2_in_0_.TGATE_0_.scs8hd_ebufn_2_A mux_top_ipin_1.mux_l1_in_0_.TGATE_0_.scs8hd_ebufn_2/Z
+ vgnd vpwr scs8hd_diode_2
XANTENNA__138__B _140_/B vgnd vpwr scs8hd_diode_2
XANTENNA__154__A _154_/A vgnd vpwr scs8hd_diode_2
XFILLER_12_180 vgnd vpwr scs8hd_decap_4
XANTENNA_mux_bottom_ipin_2.mux_l1_in_0_.TGATE_1_.scs8hd_ebufn_2_A mux_bottom_ipin_2.INVTX1_1_.scs8hd_inv_1/Y
+ vgnd vpwr scs8hd_diode_2
XFILLER_10_106 vgnd vpwr scs8hd_decap_4
XANTENNA__064__A address[2] vgnd vpwr scs8hd_diode_2
XFILLER_12_79 vgnd vpwr scs8hd_decap_4
XFILLER_18_206 vgnd vpwr scs8hd_decap_8
XFILLER_18_239 vgnd vpwr scs8hd_decap_4
Xmem_bottom_ipin_1.LATCH_0_.latch data_in _154_/A _152_/Y vgnd vpwr scs8hd_lpflow_inputisolatch_1
XANTENNA__149__A _141_/C vgnd vpwr scs8hd_diode_2
XFILLER_20_404 vgnd vpwr scs8hd_decap_3
XFILLER_17_283 vpwr vgnd scs8hd_fill_2
Xmux_top_ipin_5.mux_l1_in_0_.TGATE_0_.scs8hd_ebufn_2 mux_top_ipin_5.INVTX1_0_.scs8hd_inv_1/Y
+ mem_top_ipin_5.LATCH_0_.latch/Q mux_top_ipin_5.mux_l1_in_0_.TGATE_0_.scs8hd_ebufn_2/Z
+ vgnd vpwr scs8hd_ebufn_2
XFILLER_2_168 vpwr vgnd scs8hd_fill_2
XFILLER_2_146 vgnd vpwr scs8hd_decap_4
XFILLER_2_135 vpwr vgnd scs8hd_fill_2
XFILLER_0_16 vgnd vpwr scs8hd_decap_4
XFILLER_0_27 vgnd vpwr scs8hd_decap_4
XFILLER_14_297 vpwr vgnd scs8hd_fill_2
X_188_ _188_/HI _188_/LO vgnd vpwr scs8hd_conb_1
XANTENNA__151__B _152_/B vgnd vpwr scs8hd_diode_2
Xmux_top_ipin_2.mux_l2_in_0_.TGATE_0_.scs8hd_ebufn_2 mux_top_ipin_2.mux_l1_in_0_.TGATE_2_.scs8hd_ebufn_2/Z
+ mem_top_ipin_2.LATCH_3_.latch/Q mux_top_ipin_2.tap_buf4_0_.scs8hd_inv_1/A vgnd vpwr
+ scs8hd_ebufn_2
Xmux_bottom_ipin_2.INVTX1_0_.scs8hd_inv_1 chanx_left_in[1] mux_bottom_ipin_2.INVTX1_0_.scs8hd_inv_1/Y
+ vgnd vpwr scs8hd_inv_1
XFILLER_18_56 vgnd vpwr scs8hd_decap_4
Xmux_top_ipin_1.INVTX1_0_.scs8hd_inv_1 chanx_left_in[3] mux_top_ipin_1.INVTX1_0_.scs8hd_inv_1/Y
+ vgnd vpwr scs8hd_inv_1
X_111_ _111_/A _108_/X _111_/Y vgnd vpwr scs8hd_nor2_4
XFILLER_7_216 vgnd vpwr scs8hd_decap_3
XFILLER_11_234 vgnd vpwr scs8hd_fill_1
XFILLER_11_245 vgnd vpwr scs8hd_fill_1
XFILLER_19_367 vgnd vpwr scs8hd_decap_6
XFILLER_19_301 vgnd vpwr scs8hd_decap_4
XANTENNA__146__B _142_/X vgnd vpwr scs8hd_diode_2
XANTENNA__162__A _104_/A vgnd vpwr scs8hd_diode_2
XANTENNA_mux_top_ipin_3.INVTX1_3_.scs8hd_inv_1_A chanx_right_in[5] vgnd vpwr scs8hd_diode_2
XANTENNA__072__A enable vgnd vpwr scs8hd_diode_2
XFILLER_16_348 vpwr vgnd scs8hd_fill_2
Xmux_top_ipin_2.INVTX1_4_.scs8hd_inv_1 chanx_left_in[5] mux_top_ipin_2.INVTX1_4_.scs8hd_inv_1/Y
+ vgnd vpwr scs8hd_inv_1
XANTENNA_mux_top_ipin_7.INVTX1_4_.scs8hd_inv_1_A chanx_left_in[5] vgnd vpwr scs8hd_diode_2
XANTENNA__157__A _068_/A vgnd vpwr scs8hd_diode_2
XFILLER_15_57 vpwr vgnd scs8hd_fill_2
XFILLER_13_329 vpwr vgnd scs8hd_fill_2
XANTENNA__067__A _066_/X vgnd vpwr scs8hd_diode_2
Xmem_top_ipin_6.LATCH_2_.latch data_in mem_top_ipin_6.LATCH_2_.latch/Q _138_/Y vgnd
+ vpwr scs8hd_lpflow_inputisolatch_1
Xmux_top_ipin_6.mux_l2_in_0_.TGATE_1_.scs8hd_ebufn_2 mux_top_ipin_6.mux_l1_in_1_.TGATE_0_.scs8hd_ebufn_2/Z
+ mem_top_ipin_6.LATCH_4_.latch/Q mux_top_ipin_6.tap_buf4_0_.scs8hd_inv_1/A vgnd vpwr
+ scs8hd_ebufn_2
XFILLER_0_200 vpwr vgnd scs8hd_fill_2
XFILLER_16_145 vgnd vpwr scs8hd_decap_8
XPHY_184 vgnd vpwr scs8hd_tapvpwrvgnd_1
XPHY_173 vgnd vpwr scs8hd_tapvpwrvgnd_1
XPHY_162 vgnd vpwr scs8hd_tapvpwrvgnd_1
XPHY_151 vgnd vpwr scs8hd_tapvpwrvgnd_1
XPHY_140 vgnd vpwr scs8hd_tapvpwrvgnd_1
XFILLER_11_3 vgnd vpwr scs8hd_decap_3
XANTENNA_mux_bottom_ipin_1.mux_l2_in_0_.TGATE_1_.scs8hd_ebufn_2_TEB _153_/Y vgnd vpwr
+ scs8hd_diode_2
XFILLER_3_16 vpwr vgnd scs8hd_fill_2
XFILLER_5_336 vpwr vgnd scs8hd_fill_2
XANTENNA_mux_top_ipin_5.mux_l1_in_1_.TGATE_2_.scs8hd_ebufn_2_A mux_top_ipin_5.INVTX1_5_.scs8hd_inv_1/Y
+ vgnd vpwr scs8hd_diode_2
XFILLER_8_130 vpwr vgnd scs8hd_fill_2
XFILLER_8_163 vpwr vgnd scs8hd_fill_2
XFILLER_4_380 vgnd vpwr scs8hd_decap_12
XANTENNA_mem_top_ipin_1.LATCH_4_.latch_D data_in vgnd vpwr scs8hd_diode_2
XANTENNA__170__A _104_/A vgnd vpwr scs8hd_diode_2
XANTENNA_mem_top_ipin_3.LATCH_0_.latch_SLEEPB _114_/Y vgnd vpwr scs8hd_diode_2
XANTENNA_mem_top_ipin_2.LATCH_2_.latch_D data_in vgnd vpwr scs8hd_diode_2
XFILLER_12_36 vpwr vgnd scs8hd_fill_2
XANTENNA__080__A _080_/A vgnd vpwr scs8hd_diode_2
XANTENNA_mem_top_ipin_3.LATCH_0_.latch_D data_in vgnd vpwr scs8hd_diode_2
XFILLER_5_155 vpwr vgnd scs8hd_fill_2
XANTENNA_mem_bottom_ipin_2.LATCH_4_.latch_SLEEPB _166_/Y vgnd vpwr scs8hd_diode_2
XFILLER_1_350 vgnd vpwr scs8hd_decap_12
XFILLER_5_199 vgnd vpwr scs8hd_decap_3
XFILLER_17_240 vgnd vpwr scs8hd_decap_4
XANTENNA__149__B address[6] vgnd vpwr scs8hd_diode_2
XANTENNA__165__A _068_/A vgnd vpwr scs8hd_diode_2
Xmux_top_ipin_2.mux_l1_in_1_.TGATE_1_.scs8hd_ebufn_2 mux_top_ipin_2.INVTX1_4_.scs8hd_inv_1/Y
+ mem_top_ipin_2.LATCH_1_.latch/Q mux_top_ipin_2.mux_l1_in_1_.TGATE_2_.scs8hd_ebufn_2/Z
+ vgnd vpwr scs8hd_ebufn_2
XANTENNA__075__A _068_/X vgnd vpwr scs8hd_diode_2
XFILLER_2_114 vpwr vgnd scs8hd_fill_2
XFILLER_14_276 vgnd vpwr scs8hd_fill_1
XFILLER_14_265 vgnd vpwr scs8hd_fill_1
XFILLER_9_26 vpwr vgnd scs8hd_fill_2
X_187_ _187_/HI _187_/LO vgnd vpwr scs8hd_conb_1
XANTENNA__151__C _163_/C vgnd vpwr scs8hd_diode_2
XANTENNA_mux_top_ipin_1.INVTX1_0_.scs8hd_inv_1_A chanx_left_in[3] vgnd vpwr scs8hd_diode_2
XANTENNA_mux_top_ipin_1.mux_l1_in_1_.TGATE_0_.scs8hd_ebufn_2_A mux_top_ipin_1.INVTX1_3_.scs8hd_inv_1/Y
+ vgnd vpwr scs8hd_diode_2
X_110_ _096_/X _108_/X _110_/Y vgnd vpwr scs8hd_nor2_4
XFILLER_11_213 vpwr vgnd scs8hd_fill_2
XFILLER_7_239 vgnd vpwr scs8hd_decap_3
XFILLER_11_268 vpwr vgnd scs8hd_fill_2
XANTENNA_mux_top_ipin_5.INVTX1_1_.scs8hd_inv_1_A chanx_right_in[3] vgnd vpwr scs8hd_diode_2
XANTENNA_mem_top_ipin_6.LATCH_4_.latch_D data_in vgnd vpwr scs8hd_diode_2
XANTENNA__162__B _156_/X vgnd vpwr scs8hd_diode_2
XFILLER_10_290 vgnd vpwr scs8hd_decap_4
XANTENNA_mux_bottom_ipin_0.mux_l2_in_0_.TGATE_2_.scs8hd_ebufn_2_A _179_/HI vgnd vpwr
+ scs8hd_diode_2
XANTENNA_mux_top_ipin_6.mux_l2_in_0_.TGATE_2_.scs8hd_ebufn_2_A _188_/HI vgnd vpwr
+ scs8hd_diode_2
XANTENNA_mem_top_ipin_7.LATCH_2_.latch_D data_in vgnd vpwr scs8hd_diode_2
XANTENNA__072__B _124_/A vgnd vpwr scs8hd_diode_2
XANTENNA_mem_top_ipin_1.LATCH_1_.latch_SLEEPB _088_/Y vgnd vpwr scs8hd_diode_2
XFILLER_4_209 vgnd vpwr scs8hd_decap_4
Xmux_top_ipin_6.mux_l1_in_1_.TGATE_2_.scs8hd_ebufn_2 mux_top_ipin_6.INVTX1_5_.scs8hd_inv_1/Y
+ mem_top_ipin_6.LATCH_2_.latch/Q mux_top_ipin_6.mux_l1_in_1_.TGATE_0_.scs8hd_ebufn_2/Z
+ vgnd vpwr scs8hd_ebufn_2
XFILLER_0_404 vgnd vpwr scs8hd_decap_3
Xmux_bottom_ipin_0.INVTX1_0_.scs8hd_inv_1 chanx_left_in[0] mux_bottom_ipin_0.INVTX1_0_.scs8hd_inv_1/Y
+ vgnd vpwr scs8hd_inv_1
XFILLER_3_231 vpwr vgnd scs8hd_fill_2
XFILLER_6_27 vpwr vgnd scs8hd_fill_2
XFILLER_19_121 vgnd vpwr scs8hd_fill_1
XFILLER_13_7 vpwr vgnd scs8hd_fill_2
XANTENNA_mux_top_ipin_6.mux_l1_in_0_.TGATE_2_.scs8hd_ebufn_2_TEB mem_top_ipin_6.LATCH_2_.latch/Q
+ vgnd vpwr scs8hd_diode_2
XANTENNA__157__B _156_/X vgnd vpwr scs8hd_diode_2
XANTENNA_mem_bottom_ipin_0.LATCH_5_.latch_SLEEPB _157_/Y vgnd vpwr scs8hd_diode_2
XANTENNA__173__A _068_/A vgnd vpwr scs8hd_diode_2
XANTENNA_mux_top_ipin_2.mux_l1_in_0_.TGATE_2_.scs8hd_ebufn_2_A mux_top_ipin_2.INVTX1_2_.scs8hd_inv_1/Y
+ vgnd vpwr scs8hd_diode_2
XANTENNA__083__A _080_/A vgnd vpwr scs8hd_diode_2
XFILLER_0_278 vgnd vpwr scs8hd_fill_1
XFILLER_16_179 vgnd vpwr scs8hd_fill_1
XPHY_152 vgnd vpwr scs8hd_tapvpwrvgnd_1
XPHY_141 vgnd vpwr scs8hd_tapvpwrvgnd_1
XPHY_130 vgnd vpwr scs8hd_tapvpwrvgnd_1
Xmux_top_ipin_4.mux_l1_in_0_.TGATE_0_.scs8hd_ebufn_2 mux_top_ipin_4.INVTX1_0_.scs8hd_inv_1/Y
+ mem_top_ipin_4.LATCH_0_.latch/Q mux_top_ipin_4.mux_l1_in_0_.TGATE_0_.scs8hd_ebufn_2/Z
+ vgnd vpwr scs8hd_ebufn_2
XPHY_185 vgnd vpwr scs8hd_tapvpwrvgnd_1
XPHY_174 vgnd vpwr scs8hd_tapvpwrvgnd_1
XPHY_163 vgnd vpwr scs8hd_tapvpwrvgnd_1
XFILLER_8_356 vpwr vgnd scs8hd_fill_2
XANTENNA__168__A _168_/A vgnd vpwr scs8hd_diode_2
XANTENNA_mux_top_ipin_0.tap_buf4_0_.scs8hd_inv_1_A mux_top_ipin_0.tap_buf4_0_.scs8hd_inv_1/A
+ vgnd vpwr scs8hd_diode_2
Xmux_top_ipin_0.INVTX1_4_.scs8hd_inv_1 chanx_left_in[7] mux_top_ipin_0.INVTX1_4_.scs8hd_inv_1/Y
+ vgnd vpwr scs8hd_inv_1
XFILLER_13_138 vgnd vpwr scs8hd_decap_4
XANTENNA__078__A _082_/A vgnd vpwr scs8hd_diode_2
XANTENNA_mux_top_ipin_1.mux_l1_in_0_.TGATE_2_.scs8hd_ebufn_2_TEB mem_top_ipin_1.LATCH_2_.latch/Q
+ vgnd vpwr scs8hd_diode_2
Xmux_top_ipin_1.mux_l2_in_0_.TGATE_0_.scs8hd_ebufn_2 mux_top_ipin_1.mux_l1_in_0_.TGATE_0_.scs8hd_ebufn_2/Z
+ mem_top_ipin_1.LATCH_3_.latch/Q mux_top_ipin_1.tap_buf4_0_.scs8hd_inv_1/A vgnd vpwr
+ scs8hd_ebufn_2
XANTENNA_mux_top_ipin_2.mux_l2_in_0_.TGATE_0_.scs8hd_ebufn_2_A mux_top_ipin_2.mux_l1_in_0_.TGATE_2_.scs8hd_ebufn_2/Z
+ vgnd vpwr scs8hd_diode_2
XANTENNA__170__B _166_/B vgnd vpwr scs8hd_diode_2
XFILLER_8_186 vgnd vpwr scs8hd_decap_3
XFILLER_4_392 vgnd vpwr scs8hd_decap_4
Xmux_top_ipin_6.INVTX1_1_.scs8hd_inv_1 chanx_right_in[0] mux_top_ipin_6.INVTX1_1_.scs8hd_inv_1/Y
+ vgnd vpwr scs8hd_inv_1
XFILLER_10_119 vgnd vpwr scs8hd_decap_4
XFILLER_2_318 vgnd vpwr scs8hd_decap_4
XANTENNA__080__B address[2] vgnd vpwr scs8hd_diode_2
Xmux_top_ipin_3.tap_buf4_0_.scs8hd_inv_1 mux_top_ipin_3.tap_buf4_0_.scs8hd_inv_1/A
+ bottom_grid_pin_6_ vgnd vpwr scs8hd_inv_1
XFILLER_5_123 vpwr vgnd scs8hd_fill_2
XFILLER_5_178 vgnd vpwr scs8hd_decap_3
XFILLER_1_362 vgnd vpwr scs8hd_decap_4
XANTENNA_mux_top_ipin_4.mux_l1_in_1_.TGATE_2_.scs8hd_ebufn_2_TEB mem_top_ipin_4.LATCH_2_.latch/Q
+ vgnd vpwr scs8hd_diode_2
XANTENNA__149__C address[5] vgnd vpwr scs8hd_diode_2
XANTENNA__165__B _166_/B vgnd vpwr scs8hd_diode_2
XFILLER_4_60 vpwr vgnd scs8hd_fill_2
XFILLER_4_93 vpwr vgnd scs8hd_fill_2
XANTENNA__075__B _082_/A vgnd vpwr scs8hd_diode_2
Xmux_top_ipin_7.INVTX1_5_.scs8hd_inv_1 chanx_right_in[5] mux_top_ipin_7.INVTX1_5_.scs8hd_inv_1/Y
+ vgnd vpwr scs8hd_inv_1
XFILLER_11_406 vgnd vpwr scs8hd_fill_1
XFILLER_2_104 vgnd vpwr scs8hd_fill_1
XANTENNA__091__A _082_/A vgnd vpwr scs8hd_diode_2
XANTENNA__151__D _151_/D vgnd vpwr scs8hd_diode_2
X_186_ _186_/HI _186_/LO vgnd vpwr scs8hd_conb_1
Xmux_bottom_ipin_0.mux_l1_in_0_.TGATE_2_.scs8hd_ebufn_2 mux_bottom_ipin_0.INVTX1_2_.scs8hd_inv_1/Y
+ mem_bottom_ipin_0.LATCH_2_.latch/Q mux_bottom_ipin_0.mux_l1_in_0_.TGATE_0_.scs8hd_ebufn_2/Z
+ vgnd vpwr scs8hd_ebufn_2
XANTENNA__176__A _168_/A vgnd vpwr scs8hd_diode_2
Xmux_top_ipin_5.mux_l2_in_0_.TGATE_1_.scs8hd_ebufn_2 mux_top_ipin_5.mux_l1_in_1_.TGATE_0_.scs8hd_ebufn_2/Z
+ mem_top_ipin_5.LATCH_4_.latch/Q mux_top_ipin_5.tap_buf4_0_.scs8hd_inv_1/A vgnd vpwr
+ scs8hd_ebufn_2
XANTENNA__086__A address[1] vgnd vpwr scs8hd_diode_2
XFILLER_1_3 vgnd vpwr scs8hd_decap_4
X_169_ _102_/A _166_/B _169_/Y vgnd vpwr scs8hd_nor2_4
XANTENNA_mem_bottom_ipin_2.LATCH_4_.latch_D data_in vgnd vpwr scs8hd_diode_2
XFILLER_1_72 vgnd vpwr scs8hd_decap_3
XFILLER_20_15 vgnd vpwr scs8hd_decap_12
XANTENNA_mux_top_ipin_3.mux_l1_in_0_.TGATE_1_.scs8hd_ebufn_2_TEB mem_top_ipin_3.LATCH_1_.latch/Q
+ vgnd vpwr scs8hd_diode_2
XANTENNA__072__C address[5] vgnd vpwr scs8hd_diode_2
XFILLER_16_328 vgnd vpwr scs8hd_decap_8
XFILLER_3_254 vpwr vgnd scs8hd_fill_2
XFILLER_3_298 vgnd vpwr scs8hd_decap_4
XFILLER_10_70 vgnd vpwr scs8hd_decap_4
XANTENNA__173__B _178_/B vgnd vpwr scs8hd_diode_2
XANTENNA_mux_bottom_ipin_2.INVTX1_5_.scs8hd_inv_1_A chanx_right_in[6] vgnd vpwr scs8hd_diode_2
XFILLER_15_37 vgnd vpwr scs8hd_fill_1
XANTENNA__083__B address[2] vgnd vpwr scs8hd_diode_2
XFILLER_0_213 vpwr vgnd scs8hd_fill_2
XPHY_175 vgnd vpwr scs8hd_tapvpwrvgnd_1
XPHY_164 vgnd vpwr scs8hd_tapvpwrvgnd_1
XPHY_153 vgnd vpwr scs8hd_tapvpwrvgnd_1
XPHY_142 vgnd vpwr scs8hd_tapvpwrvgnd_1
XANTENNA_mux_top_ipin_6.mux_l1_in_1_.TGATE_1_.scs8hd_ebufn_2_TEB mem_top_ipin_6.LATCH_1_.latch/Q
+ vgnd vpwr scs8hd_diode_2
XPHY_120 vgnd vpwr scs8hd_tapvpwrvgnd_1
XPHY_131 vgnd vpwr scs8hd_tapvpwrvgnd_1
XPHY_186 vgnd vpwr scs8hd_tapvpwrvgnd_1
Xmux_top_ipin_1.mux_l1_in_1_.TGATE_1_.scs8hd_ebufn_2 mux_top_ipin_1.INVTX1_4_.scs8hd_inv_1/Y
+ mem_top_ipin_1.LATCH_1_.latch/Q mux_top_ipin_1.mux_l2_in_0_.TGATE_1_.scs8hd_ebufn_2/A
+ vgnd vpwr scs8hd_ebufn_2
XFILLER_8_335 vgnd vpwr scs8hd_fill_1
XANTENNA__168__B _166_/B vgnd vpwr scs8hd_diode_2
XPHY_0 vgnd vpwr scs8hd_decap_3
XFILLER_7_82 vpwr vgnd scs8hd_fill_2
XANTENNA__078__B _166_/A vgnd vpwr scs8hd_diode_2
XANTENNA__094__A _094_/A vgnd vpwr scs8hd_diode_2
XFILLER_5_349 vpwr vgnd scs8hd_fill_2
XANTENNA_mem_top_ipin_6.LATCH_1_.latch_SLEEPB _139_/Y vgnd vpwr scs8hd_diode_2
XFILLER_3_29 vgnd vpwr scs8hd_decap_3
Xmem_top_ipin_2.LATCH_2_.latch data_in mem_top_ipin_2.LATCH_2_.latch/Q _101_/Y vgnd
+ vpwr scs8hd_lpflow_inputisolatch_1
XANTENNA_mux_top_ipin_6.mux_l1_in_1_.TGATE_2_.scs8hd_ebufn_2_A mux_top_ipin_6.INVTX1_5_.scs8hd_inv_1/Y
+ vgnd vpwr scs8hd_diode_2
XANTENNA_mux_bottom_ipin_0.mux_l1_in_1_.TGATE_2_.scs8hd_ebufn_2_A mux_bottom_ipin_0.INVTX1_5_.scs8hd_inv_1/Y
+ vgnd vpwr scs8hd_diode_2
XFILLER_8_198 vpwr vgnd scs8hd_fill_2
XANTENNA_mux_top_ipin_1.mux_l1_in_1_.TGATE_1_.scs8hd_ebufn_2_TEB mem_top_ipin_1.LATCH_1_.latch/Q
+ vgnd vpwr scs8hd_diode_2
XFILLER_12_27 vpwr vgnd scs8hd_fill_2
XFILLER_2_308 vgnd vpwr scs8hd_fill_1
XANTENNA__080__C _151_/D vgnd vpwr scs8hd_diode_2
XANTENNA__089__A address[1] vgnd vpwr scs8hd_diode_2
Xmem_top_ipin_4.LATCH_5_.latch data_in mem_top_ipin_4.LATCH_5_.latch/Q _117_/Y vgnd
+ vpwr scs8hd_lpflow_inputisolatch_1
XFILLER_1_341 vpwr vgnd scs8hd_fill_2
Xmux_top_ipin_5.mux_l1_in_1_.TGATE_2_.scs8hd_ebufn_2 mux_top_ipin_5.INVTX1_5_.scs8hd_inv_1/Y
+ mem_top_ipin_5.LATCH_2_.latch/Q mux_top_ipin_5.mux_l1_in_1_.TGATE_0_.scs8hd_ebufn_2/Z
+ vgnd vpwr scs8hd_ebufn_2
XFILLER_4_72 vgnd vpwr scs8hd_fill_1
XFILLER_4_190 vpwr vgnd scs8hd_fill_2
XANTENNA_mux_top_ipin_5.mux_l1_in_0_.TGATE_0_.scs8hd_ebufn_2_TEB mem_top_ipin_5.LATCH_0_.latch/Q
+ vgnd vpwr scs8hd_diode_2