* NGSPICE file created from cbx_1__3_.ext - technology: EFS8A

* Black-box entry subcircuit for scs8hd_fill_2 abstract view
.subckt scs8hd_fill_2 vpwr vgnd
.ends

* Black-box entry subcircuit for scs8hd_fill_1 abstract view
.subckt scs8hd_fill_1 vgnd vpwr
.ends

* Black-box entry subcircuit for scs8hd_decap_3 abstract view
.subckt scs8hd_decap_3 vgnd vpwr
.ends

* Black-box entry subcircuit for scs8hd_diode_2 abstract view
.subckt scs8hd_diode_2 DIODE vgnd vpwr
.ends

* Black-box entry subcircuit for scs8hd_lpflow_inputisolatch_1 abstract view
.subckt scs8hd_lpflow_inputisolatch_1 D Q SLEEPB vgnd vpwr
.ends

* Black-box entry subcircuit for scs8hd_decap_6 abstract view
.subckt scs8hd_decap_6 vgnd vpwr
.ends

* Black-box entry subcircuit for scs8hd_decap_12 abstract view
.subckt scs8hd_decap_12 vgnd vpwr
.ends

* Black-box entry subcircuit for scs8hd_buf_2 abstract view
.subckt scs8hd_buf_2 A X vgnd vpwr
.ends

* Black-box entry subcircuit for scs8hd_nor2_4 abstract view
.subckt scs8hd_nor2_4 A B Y vgnd vpwr
.ends

* Black-box entry subcircuit for scs8hd_decap_4 abstract view
.subckt scs8hd_decap_4 vgnd vpwr
.ends

* Black-box entry subcircuit for scs8hd_decap_8 abstract view
.subckt scs8hd_decap_8 vgnd vpwr
.ends

* Black-box entry subcircuit for scs8hd_ebufn_2 abstract view
.subckt scs8hd_ebufn_2 A TEB Z vgnd vpwr
.ends

* Black-box entry subcircuit for scs8hd_inv_1 abstract view
.subckt scs8hd_inv_1 A Y vgnd vpwr
.ends

* Black-box entry subcircuit for scs8hd_tapvpwrvgnd_1 abstract view
.subckt scs8hd_tapvpwrvgnd_1 vgnd vpwr
.ends

* Black-box entry subcircuit for scs8hd_buf_1 abstract view
.subckt scs8hd_buf_1 A X vgnd vpwr
.ends

* Black-box entry subcircuit for scs8hd_conb_1 abstract view
.subckt scs8hd_conb_1 HI LO vgnd vpwr
.ends

* Black-box entry subcircuit for scs8hd_or4_4 abstract view
.subckt scs8hd_or4_4 A B C D X vgnd vpwr
.ends

* Black-box entry subcircuit for scs8hd_or3_4 abstract view
.subckt scs8hd_or3_4 A B C X vgnd vpwr
.ends

* Black-box entry subcircuit for scs8hd_inv_8 abstract view
.subckt scs8hd_inv_8 A Y vgnd vpwr
.ends

* Black-box entry subcircuit for scs8hd_or2_4 abstract view
.subckt scs8hd_or2_4 A B X vgnd vpwr
.ends

* Black-box entry subcircuit for scs8hd_nand2_4 abstract view
.subckt scs8hd_nand2_4 A B Y vgnd vpwr
.ends

* Black-box entry subcircuit for scs8hd_nor3_4 abstract view
.subckt scs8hd_nor3_4 A B C Y vgnd vpwr
.ends

.subckt cbx_1__3_ address[0] address[1] address[2] address[3] address[4] address[5]
+ address[6] bottom_grid_pin_0_ bottom_grid_pin_4_ bottom_grid_pin_8_ chanx_left_in[0]
+ chanx_left_in[1] chanx_left_in[2] chanx_left_in[3] chanx_left_in[4] chanx_left_in[5]
+ chanx_left_in[6] chanx_left_in[7] chanx_left_in[8] chanx_left_out[0] chanx_left_out[1]
+ chanx_left_out[2] chanx_left_out[3] chanx_left_out[4] chanx_left_out[5] chanx_left_out[6]
+ chanx_left_out[7] chanx_left_out[8] chanx_right_in[0] chanx_right_in[1] chanx_right_in[2]
+ chanx_right_in[3] chanx_right_in[4] chanx_right_in[5] chanx_right_in[6] chanx_right_in[7]
+ chanx_right_in[8] chanx_right_out[0] chanx_right_out[1] chanx_right_out[2] chanx_right_out[3]
+ chanx_right_out[4] chanx_right_out[5] chanx_right_out[6] chanx_right_out[7] chanx_right_out[8]
+ data_in enable top_grid_pin_0_ top_grid_pin_10_ top_grid_pin_12_ top_grid_pin_14_
+ top_grid_pin_2_ top_grid_pin_4_ top_grid_pin_6_ top_grid_pin_8_ vpwr vgnd
XFILLER_10_317 vpwr vgnd scs8hd_fill_2
XFILLER_7_7 vpwr vgnd scs8hd_fill_2
XFILLER_18_406 vgnd vpwr scs8hd_fill_1
XFILLER_13_166 vpwr vgnd scs8hd_fill_2
XFILLER_9_148 vpwr vgnd scs8hd_fill_2
XFILLER_9_159 vgnd vpwr scs8hd_decap_3
XFILLER_3_34 vpwr vgnd scs8hd_fill_2
XANTENNA_mux_bottom_ipin_6.mux_l1_in_0_.TGATE_1_.scs8hd_ebufn_2_TEB mem_bottom_ipin_6.LATCH_1_.latch/Q
+ vgnd vpwr scs8hd_diode_2
Xmem_bottom_ipin_2.LATCH_1_.latch data_in mem_bottom_ipin_2.LATCH_1_.latch/Q _085_/Y
+ vgnd vpwr scs8hd_lpflow_inputisolatch_1
XFILLER_8_170 vpwr vgnd scs8hd_fill_2
XFILLER_10_169 vpwr vgnd scs8hd_fill_2
XFILLER_12_10 vpwr vgnd scs8hd_fill_2
XFILLER_12_32 vgnd vpwr scs8hd_decap_6
XFILLER_2_335 vgnd vpwr scs8hd_fill_1
XFILLER_18_247 vpwr vgnd scs8hd_fill_2
XANTENNA__124__A _140_/A vgnd vpwr scs8hd_diode_2
XFILLER_5_173 vpwr vgnd scs8hd_fill_2
XFILLER_5_195 vpwr vgnd scs8hd_fill_2
XFILLER_17_291 vgnd vpwr scs8hd_decap_12
Xmem_bottom_ipin_4.LATCH_4_.latch data_in mem_bottom_ipin_4.LATCH_4_.latch/Q _114_/Y
+ vgnd vpwr scs8hd_lpflow_inputisolatch_1
XANTENNA_mux_bottom_ipin_1.mux_l1_in_0_.TGATE_1_.scs8hd_ebufn_2_TEB mem_bottom_ipin_1.LATCH_1_.latch/Q
+ vgnd vpwr scs8hd_diode_2
X_200_ chanx_right_in[0] chanx_left_out[0] vgnd vpwr scs8hd_buf_2
XANTENNA__209__A chanx_left_in[0] vgnd vpwr scs8hd_diode_2
X_131_ _112_/A _133_/B _131_/Y vgnd vpwr scs8hd_nor2_4
XANTENNA_mux_bottom_ipin_4.mux_l1_in_1_.TGATE_1_.scs8hd_ebufn_2_A mux_bottom_ipin_4.INVTX1_4_.scs8hd_inv_1/Y
+ vgnd vpwr scs8hd_diode_2
XFILLER_2_154 vpwr vgnd scs8hd_fill_2
XANTENNA__110__C address[3] vgnd vpwr scs8hd_diode_2
XANTENNA_mem_top_ipin_0.LATCH_3_.latch_D data_in vgnd vpwr scs8hd_diode_2
XANTENNA__119__A _163_/A vgnd vpwr scs8hd_diode_2
XFILLER_9_44 vgnd vpwr scs8hd_decap_4
XANTENNA_mem_top_ipin_1.LATCH_1_.latch_D data_in vgnd vpwr scs8hd_diode_2
XFILLER_20_242 vgnd vpwr scs8hd_decap_6
XFILLER_18_20 vgnd vpwr scs8hd_decap_8
XANTENNA_mux_bottom_ipin_4.mux_l1_in_1_.TGATE_1_.scs8hd_ebufn_2_TEB mem_bottom_ipin_4.LATCH_1_.latch/Q
+ vgnd vpwr scs8hd_diode_2
XFILLER_11_264 vgnd vpwr scs8hd_fill_1
X_114_ _140_/A _111_/X _114_/Y vgnd vpwr scs8hd_nor2_4
XFILLER_7_224 vgnd vpwr scs8hd_fill_1
XFILLER_11_297 vpwr vgnd scs8hd_fill_2
Xmux_bottom_ipin_3.mux_l1_in_0_.TGATE_2_.scs8hd_ebufn_2 mux_bottom_ipin_3.INVTX1_2_.scs8hd_inv_1/Y
+ mem_bottom_ipin_3.LATCH_2_.latch/Q mux_bottom_ipin_3.mux_l2_in_0_.TGATE_0_.scs8hd_ebufn_2/A
+ vgnd vpwr scs8hd_ebufn_2
XANTENNA__121__B _121_/B vgnd vpwr scs8hd_diode_2
XFILLER_19_342 vgnd vpwr scs8hd_decap_12
XFILLER_6_290 vpwr vgnd scs8hd_fill_2
XANTENNA_mem_bottom_ipin_5.LATCH_0_.latch_SLEEPB _128_/Y vgnd vpwr scs8hd_diode_2
XANTENNA_mux_top_ipin_2.INVTX1_1_.scs8hd_inv_1_A chanx_right_in[1] vgnd vpwr scs8hd_diode_2
XFILLER_20_32 vgnd vpwr scs8hd_decap_12
Xmux_top_ipin_0.mux_l1_in_1_.TGATE_0_.scs8hd_ebufn_2 mux_top_ipin_0.INVTX1_3_.scs8hd_inv_1/Y
+ mem_top_ipin_0.LATCH_0_.latch/Q mux_top_ipin_0.mux_l1_in_1_.TGATE_1_.scs8hd_ebufn_2/Z
+ vgnd vpwr scs8hd_ebufn_2
XFILLER_20_87 vgnd vpwr scs8hd_decap_6
XFILLER_16_389 vgnd vpwr scs8hd_decap_8
XANTENNA__116__B _111_/X vgnd vpwr scs8hd_diode_2
XFILLER_3_282 vpwr vgnd scs8hd_fill_2
XFILLER_3_293 vpwr vgnd scs8hd_fill_2
XANTENNA__132__A _140_/A vgnd vpwr scs8hd_diode_2
XFILLER_6_45 vgnd vpwr scs8hd_decap_4
XANTENNA_mux_top_ipin_0.mux_l1_in_0_.TGATE_2_.scs8hd_ebufn_2_A mux_top_ipin_0.INVTX1_2_.scs8hd_inv_1/Y
+ vgnd vpwr scs8hd_diode_2
Xmux_bottom_ipin_0.mux_l2_in_0_.TGATE_2_.scs8hd_ebufn_2 _181_/HI mem_bottom_ipin_0.LATCH_5_.latch/Q
+ mux_bottom_ipin_0.tap_buf4_0_.scs8hd_inv_1/A vgnd vpwr scs8hd_ebufn_2
XFILLER_13_3 vpwr vgnd scs8hd_fill_2
XANTENNA_mux_bottom_ipin_6.INVTX1_0_.scs8hd_inv_1_A chanx_left_in[1] vgnd vpwr scs8hd_diode_2
Xmux_bottom_ipin_0.INVTX1_3_.scs8hd_inv_1 chanx_right_in[4] mux_bottom_ipin_0.INVTX1_3_.scs8hd_inv_1/Y
+ vgnd vpwr scs8hd_inv_1
XFILLER_15_65 vgnd vpwr scs8hd_decap_8
XFILLER_0_274 vpwr vgnd scs8hd_fill_2
XFILLER_0_263 vpwr vgnd scs8hd_fill_2
XPHY_170 vgnd vpwr scs8hd_tapvpwrvgnd_1
XANTENNA__127__A _105_/A vgnd vpwr scs8hd_diode_2
XPHY_181 vgnd vpwr scs8hd_tapvpwrvgnd_1
Xmux_bottom_ipin_5.tap_buf4_0_.scs8hd_inv_1 mux_bottom_ipin_5.tap_buf4_0_.scs8hd_inv_1/A
+ top_grid_pin_10_ vgnd vpwr scs8hd_inv_1
XFILLER_8_396 vgnd vpwr scs8hd_fill_1
XANTENNA_mux_bottom_ipin_4.tap_buf4_0_.scs8hd_inv_1_A mux_bottom_ipin_4.tap_buf4_0_.scs8hd_inv_1/A
+ vgnd vpwr scs8hd_diode_2
XANTENNA_mux_bottom_ipin_3.mux_l1_in_0_.TGATE_0_.scs8hd_ebufn_2_TEB mem_bottom_ipin_3.LATCH_0_.latch/Q
+ vgnd vpwr scs8hd_diode_2
XANTENNA_mux_bottom_ipin_5.mux_l2_in_0_.TGATE_1_.scs8hd_ebufn_2_A mux_bottom_ipin_5.mux_l2_in_0_.TGATE_1_.scs8hd_ebufn_2/A
+ vgnd vpwr scs8hd_diode_2
Xmem_bottom_ipin_5.LATCH_0_.latch data_in mem_bottom_ipin_5.LATCH_0_.latch/Q _128_/Y
+ vgnd vpwr scs8hd_lpflow_inputisolatch_1
Xmux_bottom_ipin_6.INVTX1_0_.scs8hd_inv_1 chanx_left_in[1] mux_bottom_ipin_6.INVTX1_0_.scs8hd_inv_1/Y
+ vgnd vpwr scs8hd_inv_1
XFILLER_13_189 vpwr vgnd scs8hd_fill_2
XFILLER_5_300 vpwr vgnd scs8hd_fill_2
XFILLER_9_127 vpwr vgnd scs8hd_fill_2
XFILLER_3_57 vpwr vgnd scs8hd_fill_2
XFILLER_3_46 vpwr vgnd scs8hd_fill_2
XANTENNA_mux_top_ipin_0.mux_l2_in_0_.TGATE_0_.scs8hd_ebufn_2_A mux_top_ipin_0.mux_l1_in_0_.TGATE_2_.scs8hd_ebufn_2/Z
+ vgnd vpwr scs8hd_diode_2
XANTENNA_mux_bottom_ipin_1.mux_l1_in_0_.TGATE_1_.scs8hd_ebufn_2_A mux_bottom_ipin_1.INVTX1_1_.scs8hd_inv_1/Y
+ vgnd vpwr scs8hd_diode_2
XFILLER_6_108 vgnd vpwr scs8hd_decap_8
XFILLER_12_88 vgnd vpwr scs8hd_decap_4
Xmem_bottom_ipin_7.LATCH_3_.latch data_in mem_bottom_ipin_7.LATCH_3_.latch/Q _141_/Y
+ vgnd vpwr scs8hd_lpflow_inputisolatch_1
XANTENNA_mux_bottom_ipin_6.mux_l1_in_1_.TGATE_0_.scs8hd_ebufn_2_TEB mem_bottom_ipin_6.LATCH_0_.latch/Q
+ vgnd vpwr scs8hd_diode_2
XFILLER_18_215 vgnd vpwr scs8hd_decap_12
Xmux_bottom_ipin_7.INVTX1_4_.scs8hd_inv_1 chanx_left_in[7] mux_bottom_ipin_7.INVTX1_4_.scs8hd_inv_1/Y
+ vgnd vpwr scs8hd_inv_1
XANTENNA_mem_bottom_ipin_3.LATCH_1_.latch_SLEEPB _105_/Y vgnd vpwr scs8hd_diode_2
XANTENNA__124__B _124_/B vgnd vpwr scs8hd_diode_2
XANTENNA__140__A _140_/A vgnd vpwr scs8hd_diode_2
XFILLER_1_391 vgnd vpwr scs8hd_decap_12
Xmux_top_ipin_0.tap_buf4_0_.scs8hd_inv_1 mux_top_ipin_0.tap_buf4_0_.scs8hd_inv_1/A
+ bottom_grid_pin_0_ vgnd vpwr scs8hd_inv_1
XFILLER_15_229 vgnd vpwr scs8hd_decap_4
XFILLER_15_218 vpwr vgnd scs8hd_fill_2
X_130_ _129_/X _133_/B vgnd vpwr scs8hd_buf_1
XFILLER_2_122 vpwr vgnd scs8hd_fill_2
XANTENNA__110__D _121_/A vgnd vpwr scs8hd_diode_2
XANTENNA__119__B address[4] vgnd vpwr scs8hd_diode_2
XFILLER_14_273 vpwr vgnd scs8hd_fill_2
XANTENNA__135__A _105_/A vgnd vpwr scs8hd_diode_2
XFILLER_9_23 vpwr vgnd scs8hd_fill_2
XANTENNA_mux_bottom_ipin_1.mux_l1_in_1_.TGATE_0_.scs8hd_ebufn_2_TEB mem_bottom_ipin_1.LATCH_0_.latch/Q
+ vgnd vpwr scs8hd_diode_2
XFILLER_18_32 vgnd vpwr scs8hd_decap_12
X_113_ _113_/A _140_/A vgnd vpwr scs8hd_buf_1
XFILLER_7_236 vpwr vgnd scs8hd_fill_2
XFILLER_11_276 vpwr vgnd scs8hd_fill_2
XFILLER_19_354 vgnd vpwr scs8hd_decap_12
XFILLER_15_7 vpwr vgnd scs8hd_fill_2
XFILLER_20_44 vgnd vpwr scs8hd_decap_12
XFILLER_4_206 vpwr vgnd scs8hd_fill_2
XFILLER_16_346 vgnd vpwr scs8hd_decap_12
XFILLER_3_250 vpwr vgnd scs8hd_fill_2
XANTENNA_mem_bottom_ipin_1.LATCH_2_.latch_SLEEPB _176_/Y vgnd vpwr scs8hd_diode_2
XANTENNA__132__B _133_/B vgnd vpwr scs8hd_diode_2
XFILLER_19_184 vgnd vpwr scs8hd_decap_12
XFILLER_15_33 vpwr vgnd scs8hd_fill_2
XFILLER_15_22 vpwr vgnd scs8hd_fill_2
XFILLER_15_11 vgnd vpwr scs8hd_decap_4
XANTENNA_mem_bottom_ipin_0.LATCH_5_.latch_D data_in vgnd vpwr scs8hd_diode_2
XFILLER_16_132 vgnd vpwr scs8hd_decap_12
XFILLER_16_121 vpwr vgnd scs8hd_fill_2
XANTENNA_mem_bottom_ipin_1.LATCH_3_.latch_D data_in vgnd vpwr scs8hd_diode_2
XPHY_182 vgnd vpwr scs8hd_tapvpwrvgnd_1
XPHY_171 vgnd vpwr scs8hd_tapvpwrvgnd_1
XPHY_160 vgnd vpwr scs8hd_tapvpwrvgnd_1
XFILLER_16_165 vgnd vpwr scs8hd_decap_12
XFILLER_16_154 vpwr vgnd scs8hd_fill_2
XANTENNA__127__B _124_/B vgnd vpwr scs8hd_diode_2
XANTENNA_mem_bottom_ipin_2.LATCH_1_.latch_D data_in vgnd vpwr scs8hd_diode_2
XFILLER_8_375 vgnd vpwr scs8hd_decap_4
XANTENNA__143__A _105_/A vgnd vpwr scs8hd_diode_2
Xmem_top_ipin_0.LATCH_4_.latch data_in mem_top_ipin_0.LATCH_4_.latch/Q _150_/Y vgnd
+ vpwr scs8hd_lpflow_inputisolatch_1
XFILLER_13_179 vpwr vgnd scs8hd_fill_2
XFILLER_9_117 vpwr vgnd scs8hd_fill_2
XFILLER_5_378 vgnd vpwr scs8hd_fill_1
XANTENNA__138__A _137_/X vgnd vpwr scs8hd_diode_2
XFILLER_10_149 vgnd vpwr scs8hd_decap_4
XFILLER_12_23 vgnd vpwr scs8hd_decap_8
XFILLER_12_67 vpwr vgnd scs8hd_fill_2
XFILLER_2_337 vgnd vpwr scs8hd_decap_12
Xmux_bottom_ipin_2.mux_l1_in_0_.TGATE_2_.scs8hd_ebufn_2 mux_bottom_ipin_2.INVTX1_2_.scs8hd_inv_1/Y
+ mem_bottom_ipin_2.LATCH_2_.latch/Q mux_bottom_ipin_2.mux_l2_in_0_.TGATE_0_.scs8hd_ebufn_2/A
+ vgnd vpwr scs8hd_ebufn_2
XFILLER_18_227 vgnd vpwr scs8hd_decap_12
XANTENNA_mux_top_ipin_1.mux_l2_in_0_.TGATE_1_.scs8hd_ebufn_2_TEB _159_/Y vgnd vpwr
+ scs8hd_diode_2
XANTENNA__140__B _141_/B vgnd vpwr scs8hd_diode_2
Xmux_bottom_ipin_4.INVTX1_0_.scs8hd_inv_1 chanx_left_in[3] mux_bottom_ipin_4.INVTX1_0_.scs8hd_inv_1/Y
+ vgnd vpwr scs8hd_inv_1
XFILLER_17_260 vpwr vgnd scs8hd_fill_2
XANTENNA_mem_bottom_ipin_5.LATCH_5_.latch_D data_in vgnd vpwr scs8hd_diode_2
XFILLER_3_3 vpwr vgnd scs8hd_fill_2
XFILLER_2_145 vgnd vpwr scs8hd_decap_4
XFILLER_2_112 vgnd vpwr scs8hd_fill_1
XANTENNA_mem_bottom_ipin_6.LATCH_3_.latch_D data_in vgnd vpwr scs8hd_diode_2
XFILLER_0_15 vpwr vgnd scs8hd_fill_2
XFILLER_14_252 vpwr vgnd scs8hd_fill_2
XANTENNA__119__C _119_/C vgnd vpwr scs8hd_diode_2
XANTENNA_mux_bottom_ipin_5.mux_l1_in_1_.TGATE_1_.scs8hd_ebufn_2_A mux_bottom_ipin_5.INVTX1_4_.scs8hd_inv_1/Y
+ vgnd vpwr scs8hd_diode_2
XANTENNA_mem_bottom_ipin_7.LATCH_1_.latch_D data_in vgnd vpwr scs8hd_diode_2
XFILLER_14_285 vgnd vpwr scs8hd_decap_4
X_189_ _189_/HI _189_/LO vgnd vpwr scs8hd_conb_1
XANTENNA__135__B _133_/B vgnd vpwr scs8hd_diode_2
XFILLER_9_57 vpwr vgnd scs8hd_fill_2
XANTENNA__151__A _175_/A vgnd vpwr scs8hd_diode_2
Xmux_bottom_ipin_5.INVTX1_4_.scs8hd_inv_1 chanx_left_in[5] mux_bottom_ipin_5.INVTX1_4_.scs8hd_inv_1/Y
+ vgnd vpwr scs8hd_inv_1
XFILLER_20_211 vgnd vpwr scs8hd_decap_6
Xmem_bottom_ipin_0.LATCH_4_.latch data_in mem_bottom_ipin_0.LATCH_4_.latch/Q _166_/Y
+ vgnd vpwr scs8hd_lpflow_inputisolatch_1
XFILLER_18_44 vgnd vpwr scs8hd_decap_12
XANTENNA_mux_top_ipin_0.mux_l1_in_1_.TGATE_0_.scs8hd_ebufn_2_A mux_top_ipin_0.INVTX1_3_.scs8hd_inv_1/Y
+ vgnd vpwr scs8hd_diode_2
XFILLER_18_99 vgnd vpwr scs8hd_decap_8
X_112_ _112_/A _111_/X _112_/Y vgnd vpwr scs8hd_nor2_4
XANTENNA__146__A _145_/X vgnd vpwr scs8hd_diode_2
XFILLER_1_80 vpwr vgnd scs8hd_fill_2
XFILLER_20_56 vgnd vpwr scs8hd_decap_6
XFILLER_4_218 vgnd vpwr scs8hd_decap_4
XFILLER_16_369 vpwr vgnd scs8hd_fill_2
XFILLER_16_358 vgnd vpwr scs8hd_decap_3
XFILLER_6_25 vpwr vgnd scs8hd_fill_2
XFILLER_6_58 vpwr vgnd scs8hd_fill_2
XFILLER_3_240 vpwr vgnd scs8hd_fill_2
XFILLER_19_196 vgnd vpwr scs8hd_decap_12
Xmem_top_ipin_1.LATCH_0_.latch data_in _160_/A _156_/Y vgnd vpwr scs8hd_lpflow_inputisolatch_1
XFILLER_15_380 vpwr vgnd scs8hd_fill_2
XANTENNA_mux_bottom_ipin_1.INVTX1_3_.scs8hd_inv_1_A chanx_right_in[1] vgnd vpwr scs8hd_diode_2
XFILLER_13_317 vpwr vgnd scs8hd_fill_2
XFILLER_0_287 vgnd vpwr scs8hd_decap_4
XFILLER_0_221 vpwr vgnd scs8hd_fill_2
XFILLER_16_144 vgnd vpwr scs8hd_decap_8
XFILLER_0_298 vgnd vpwr scs8hd_decap_4
XANTENNA_mux_bottom_ipin_5.INVTX1_4_.scs8hd_inv_1_A chanx_left_in[5] vgnd vpwr scs8hd_diode_2
XPHY_183 vgnd vpwr scs8hd_tapvpwrvgnd_1
XPHY_172 vgnd vpwr scs8hd_tapvpwrvgnd_1
XPHY_161 vgnd vpwr scs8hd_tapvpwrvgnd_1
XFILLER_16_188 vgnd vpwr scs8hd_decap_8
XFILLER_16_177 vgnd vpwr scs8hd_decap_8
XPHY_150 vgnd vpwr scs8hd_tapvpwrvgnd_1
XFILLER_8_354 vpwr vgnd scs8hd_fill_2
XFILLER_12_350 vpwr vgnd scs8hd_fill_2
XFILLER_8_398 vgnd vpwr scs8hd_decap_8
XANTENNA__143__B _141_/B vgnd vpwr scs8hd_diode_2
XANTENNA_mux_bottom_ipin_6.mux_l2_in_0_.TGATE_1_.scs8hd_ebufn_2_A mux_bottom_ipin_6.mux_l2_in_0_.TGATE_1_.scs8hd_ebufn_2/A
+ vgnd vpwr scs8hd_diode_2
XFILLER_13_147 vpwr vgnd scs8hd_fill_2
XFILLER_13_114 vpwr vgnd scs8hd_fill_2
XFILLER_9_107 vpwr vgnd scs8hd_fill_2
XFILLER_5_313 vpwr vgnd scs8hd_fill_2
XFILLER_5_324 vgnd vpwr scs8hd_decap_4
XFILLER_5_335 vpwr vgnd scs8hd_fill_2
XFILLER_5_357 vgnd vpwr scs8hd_fill_1
XANTENNA_mux_top_ipin_1.mux_l2_in_0_.TGATE_0_.scs8hd_ebufn_2_A mux_top_ipin_1.mux_l1_in_0_.TGATE_0_.scs8hd_ebufn_2/Z
+ vgnd vpwr scs8hd_diode_2
XANTENNA_mux_bottom_ipin_4.mux_l2_in_0_.TGATE_2_.scs8hd_ebufn_2_TEB mem_bottom_ipin_4.LATCH_5_.latch/Q
+ vgnd vpwr scs8hd_diode_2
XANTENNA__154__A _144_/A vgnd vpwr scs8hd_diode_2
XANTENNA_mux_bottom_ipin_2.mux_l1_in_0_.TGATE_1_.scs8hd_ebufn_2_A mux_bottom_ipin_2.INVTX1_1_.scs8hd_inv_1/Y
+ vgnd vpwr scs8hd_diode_2
XANTENNA_mem_bottom_ipin_6.LATCH_2_.latch_SLEEPB _134_/Y vgnd vpwr scs8hd_diode_2
XFILLER_10_128 vpwr vgnd scs8hd_fill_2
XFILLER_2_349 vgnd vpwr scs8hd_decap_12
XFILLER_18_239 vgnd vpwr scs8hd_decap_8
XFILLER_5_121 vgnd vpwr scs8hd_fill_1
Xmem_bottom_ipin_1.LATCH_0_.latch data_in mem_bottom_ipin_1.LATCH_0_.latch/Q _178_/Y
+ vgnd vpwr scs8hd_lpflow_inputisolatch_1
XFILLER_5_143 vpwr vgnd scs8hd_fill_2
XANTENNA__149__A _112_/A vgnd vpwr scs8hd_diode_2
XFILLER_20_404 vgnd vpwr scs8hd_decap_3
XFILLER_11_404 vgnd vpwr scs8hd_decap_3
XFILLER_2_102 vpwr vgnd scs8hd_fill_2
Xmem_bottom_ipin_3.LATCH_3_.latch data_in mem_bottom_ipin_3.LATCH_3_.latch/Q _101_/Y
+ vgnd vpwr scs8hd_lpflow_inputisolatch_1
XFILLER_9_69 vpwr vgnd scs8hd_fill_2
X_188_ _188_/HI _188_/LO vgnd vpwr scs8hd_conb_1
XANTENNA__151__B _150_/B vgnd vpwr scs8hd_diode_2
Xmux_top_ipin_2.mux_l2_in_0_.TGATE_0_.scs8hd_ebufn_2 mux_top_ipin_2.mux_l2_in_0_.TGATE_0_.scs8hd_ebufn_2/A
+ _161_/A mux_top_ipin_2.tap_buf4_0_.scs8hd_inv_1/A vgnd vpwr scs8hd_ebufn_2
Xmux_bottom_ipin_2.INVTX1_0_.scs8hd_inv_1 chanx_left_in[1] mux_bottom_ipin_2.INVTX1_0_.scs8hd_inv_1/Y
+ vgnd vpwr scs8hd_inv_1
XFILLER_18_56 vgnd vpwr scs8hd_decap_12
X_111_ _110_/X _111_/X vgnd vpwr scs8hd_buf_1
Xmux_top_ipin_1.INVTX1_0_.scs8hd_inv_1 chanx_left_in[0] mux_top_ipin_1.INVTX1_0_.scs8hd_inv_1/Y
+ vgnd vpwr scs8hd_inv_1
XFILLER_7_216 vpwr vgnd scs8hd_fill_2
XFILLER_11_234 vpwr vgnd scs8hd_fill_2
XFILLER_11_256 vpwr vgnd scs8hd_fill_2
XFILLER_19_367 vgnd vpwr scs8hd_decap_12
XANTENNA__162__A _162_/A vgnd vpwr scs8hd_diode_2
XFILLER_6_271 vpwr vgnd scs8hd_fill_2
XFILLER_1_70 vgnd vpwr scs8hd_fill_1
Xmux_bottom_ipin_3.INVTX1_4_.scs8hd_inv_1 chanx_left_in[7] mux_bottom_ipin_3.INVTX1_4_.scs8hd_inv_1/Y
+ vgnd vpwr scs8hd_inv_1
XANTENNA__072__A address[5] vgnd vpwr scs8hd_diode_2
XANTENNA_mem_bottom_ipin_4.LATCH_3_.latch_SLEEPB _115_/Y vgnd vpwr scs8hd_diode_2
XANTENNA_mux_bottom_ipin_6.mux_l2_in_0_.TGATE_1_.scs8hd_ebufn_2_TEB mem_bottom_ipin_6.LATCH_4_.latch/Q
+ vgnd vpwr scs8hd_diode_2
XANTENNA_mux_bottom_ipin_3.INVTX1_1_.scs8hd_inv_1_A chanx_right_in[2] vgnd vpwr scs8hd_diode_2
XFILLER_20_7 vgnd vpwr scs8hd_decap_12
XANTENNA__157__A _129_/A vgnd vpwr scs8hd_diode_2
XFILLER_15_392 vgnd vpwr scs8hd_decap_4
XANTENNA_mux_bottom_ipin_7.INVTX1_2_.scs8hd_inv_1_A chanx_left_in[6] vgnd vpwr scs8hd_diode_2
Xmux_bottom_ipin_1.mux_l1_in_0_.TGATE_2_.scs8hd_ebufn_2 mux_bottom_ipin_1.INVTX1_2_.scs8hd_inv_1/Y
+ mem_bottom_ipin_1.LATCH_2_.latch/Q mux_bottom_ipin_1.mux_l2_in_0_.TGATE_0_.scs8hd_ebufn_2/A
+ vgnd vpwr scs8hd_ebufn_2
XFILLER_15_79 vpwr vgnd scs8hd_fill_2
XANTENNA__067__A address[1] vgnd vpwr scs8hd_diode_2
XFILLER_0_244 vgnd vpwr scs8hd_fill_1
XPHY_184 vgnd vpwr scs8hd_tapvpwrvgnd_1
XPHY_173 vgnd vpwr scs8hd_tapvpwrvgnd_1
XPHY_162 vgnd vpwr scs8hd_tapvpwrvgnd_1
XPHY_151 vgnd vpwr scs8hd_tapvpwrvgnd_1
XPHY_140 vgnd vpwr scs8hd_tapvpwrvgnd_1
XFILLER_8_388 vgnd vpwr scs8hd_decap_8
XFILLER_12_384 vpwr vgnd scs8hd_fill_2
XFILLER_11_3 vpwr vgnd scs8hd_fill_2
XANTENNA_mux_bottom_ipin_1.mux_l2_in_0_.TGATE_1_.scs8hd_ebufn_2_TEB mem_bottom_ipin_1.LATCH_4_.latch/Q
+ vgnd vpwr scs8hd_diode_2
XFILLER_3_38 vpwr vgnd scs8hd_fill_2
XFILLER_8_174 vgnd vpwr scs8hd_decap_3
XANTENNA__154__B _150_/B vgnd vpwr scs8hd_diode_2
XFILLER_12_170 vgnd vpwr scs8hd_decap_8
XFILLER_12_181 vgnd vpwr scs8hd_fill_1
XANTENNA__170__A _106_/A vgnd vpwr scs8hd_diode_2
XFILLER_2_317 vgnd vpwr scs8hd_decap_12
XANTENNA__080__A _080_/A vgnd vpwr scs8hd_diode_2
XANTENNA_mem_bottom_ipin_2.LATCH_4_.latch_SLEEPB _180_/Y vgnd vpwr scs8hd_diode_2
XFILLER_5_177 vgnd vpwr scs8hd_decap_4
XFILLER_17_251 vpwr vgnd scs8hd_fill_2
XANTENNA__149__B _150_/B vgnd vpwr scs8hd_diode_2
XANTENNA__165__A _092_/A vgnd vpwr scs8hd_diode_2
XFILLER_4_81 vpwr vgnd scs8hd_fill_2
Xmem_bottom_ipin_6.LATCH_2_.latch data_in mem_bottom_ipin_6.LATCH_2_.latch/Q _134_/Y
+ vgnd vpwr scs8hd_lpflow_inputisolatch_1
XANTENNA__075__A _075_/A vgnd vpwr scs8hd_diode_2
XFILLER_2_158 vpwr vgnd scs8hd_fill_2
XFILLER_14_265 vgnd vpwr scs8hd_decap_6
XFILLER_9_48 vgnd vpwr scs8hd_fill_1
XFILLER_13_90 vpwr vgnd scs8hd_fill_2
XANTENNA_mux_bottom_ipin_6.mux_l1_in_1_.TGATE_1_.scs8hd_ebufn_2_A mux_bottom_ipin_6.INVTX1_4_.scs8hd_inv_1/Y
+ vgnd vpwr scs8hd_diode_2
X_187_ _187_/HI _187_/LO vgnd vpwr scs8hd_conb_1
XFILLER_1_191 vgnd vpwr scs8hd_decap_4
XFILLER_9_280 vpwr vgnd scs8hd_fill_2
XANTENNA_mux_top_ipin_1.INVTX1_0_.scs8hd_inv_1_A chanx_left_in[0] vgnd vpwr scs8hd_diode_2
XFILLER_18_68 vgnd vpwr scs8hd_decap_12
X_110_ _163_/A address[4] address[3] _121_/A _110_/X vgnd vpwr scs8hd_or4_4
XFILLER_11_213 vpwr vgnd scs8hd_fill_2
XFILLER_19_302 vgnd vpwr scs8hd_decap_3
XFILLER_19_379 vgnd vpwr scs8hd_decap_12
XANTENNA_mux_bottom_ipin_3.mux_l2_in_0_.TGATE_0_.scs8hd_ebufn_2_TEB mem_bottom_ipin_3.LATCH_3_.latch/Q
+ vgnd vpwr scs8hd_diode_2
XFILLER_6_294 vgnd vpwr scs8hd_decap_4
XANTENNA_mux_bottom_ipin_0.mux_l2_in_0_.TGATE_2_.scs8hd_ebufn_2_A _181_/HI vgnd vpwr
+ scs8hd_diode_2
XANTENNA_mem_top_ipin_1.LATCH_1_.latch_SLEEPB _155_/Y vgnd vpwr scs8hd_diode_2
XANTENNA__072__B address[6] vgnd vpwr scs8hd_diode_2
XFILLER_0_404 vgnd vpwr scs8hd_decap_3
Xmux_bottom_ipin_0.INVTX1_0_.scs8hd_inv_1 chanx_left_in[0] mux_bottom_ipin_0.INVTX1_0_.scs8hd_inv_1/Y
+ vgnd vpwr scs8hd_inv_1
XFILLER_3_286 vpwr vgnd scs8hd_fill_2
XFILLER_19_110 vgnd vpwr scs8hd_decap_12
XFILLER_3_297 vpwr vgnd scs8hd_fill_2
XFILLER_13_7 vpwr vgnd scs8hd_fill_2
XFILLER_15_360 vgnd vpwr scs8hd_fill_1
XANTENNA__157__B _157_/B vgnd vpwr scs8hd_diode_2
XANTENNA_mem_bottom_ipin_0.LATCH_5_.latch_SLEEPB _165_/Y vgnd vpwr scs8hd_diode_2
XANTENNA__173__A _092_/A vgnd vpwr scs8hd_diode_2
XANTENNA__083__A address[1] vgnd vpwr scs8hd_diode_2
XFILLER_0_278 vgnd vpwr scs8hd_fill_1
XPHY_152 vgnd vpwr scs8hd_tapvpwrvgnd_1
XPHY_141 vgnd vpwr scs8hd_tapvpwrvgnd_1
Xmux_bottom_ipin_1.INVTX1_4_.scs8hd_inv_1 chanx_left_in[5] mux_bottom_ipin_1.INVTX1_4_.scs8hd_inv_1/Y
+ vgnd vpwr scs8hd_inv_1
XPHY_130 vgnd vpwr scs8hd_tapvpwrvgnd_1
XPHY_185 vgnd vpwr scs8hd_tapvpwrvgnd_1
XPHY_174 vgnd vpwr scs8hd_tapvpwrvgnd_1
XPHY_163 vgnd vpwr scs8hd_tapvpwrvgnd_1
XFILLER_12_396 vgnd vpwr scs8hd_fill_1
Xmux_top_ipin_0.INVTX1_4_.scs8hd_inv_1 chanx_left_in[8] mux_top_ipin_0.INVTX1_4_.scs8hd_inv_1/Y
+ vgnd vpwr scs8hd_inv_1
XANTENNA_mux_top_ipin_0.tap_buf4_0_.scs8hd_inv_1_A mux_top_ipin_0.tap_buf4_0_.scs8hd_inv_1/A
+ vgnd vpwr scs8hd_diode_2
XANTENNA__168__A _168_/A vgnd vpwr scs8hd_diode_2
XANTENNA_mux_bottom_ipin_7.mux_l2_in_0_.TGATE_1_.scs8hd_ebufn_2_A mux_bottom_ipin_7.mux_l1_in_1_.TGATE_1_.scs8hd_ebufn_2/Z
+ vgnd vpwr scs8hd_diode_2
XFILLER_7_92 vgnd vpwr scs8hd_fill_1
XFILLER_13_138 vpwr vgnd scs8hd_fill_2
XANTENNA__078__A _077_/X vgnd vpwr scs8hd_diode_2
XFILLER_5_304 vgnd vpwr scs8hd_fill_1
XFILLER_3_17 vpwr vgnd scs8hd_fill_2
XANTENNA_mux_top_ipin_2.mux_l2_in_0_.TGATE_0_.scs8hd_ebufn_2_A mux_top_ipin_2.mux_l2_in_0_.TGATE_0_.scs8hd_ebufn_2/A
+ vgnd vpwr scs8hd_diode_2
Xmux_top_ipin_1.mux_l2_in_0_.TGATE_0_.scs8hd_ebufn_2 mux_top_ipin_1.mux_l1_in_0_.TGATE_0_.scs8hd_ebufn_2/Z
+ _159_/A mux_top_ipin_1.tap_buf4_0_.scs8hd_inv_1/A vgnd vpwr scs8hd_ebufn_2
Xmux_bottom_ipin_7.INVTX1_1_.scs8hd_inv_1 chanx_right_in[2] mux_bottom_ipin_7.INVTX1_1_.scs8hd_inv_1/Y
+ vgnd vpwr scs8hd_inv_1
XANTENNA__170__B _168_/B vgnd vpwr scs8hd_diode_2
XFILLER_8_186 vpwr vgnd scs8hd_fill_2
XANTENNA_mux_bottom_ipin_3.mux_l1_in_0_.TGATE_1_.scs8hd_ebufn_2_A mux_bottom_ipin_3.INVTX1_1_.scs8hd_inv_1/Y
+ vgnd vpwr scs8hd_diode_2
XFILLER_2_329 vgnd vpwr scs8hd_decap_6
XANTENNA__080__B address[2] vgnd vpwr scs8hd_diode_2
XFILLER_5_123 vgnd vpwr scs8hd_decap_4
XFILLER_5_156 vpwr vgnd scs8hd_fill_2
XFILLER_1_351 vgnd vpwr scs8hd_decap_12
XANTENNA__165__B _168_/B vgnd vpwr scs8hd_diode_2
XANTENNA__075__B _137_/B vgnd vpwr scs8hd_diode_2
XANTENNA__091__A _090_/X vgnd vpwr scs8hd_diode_2
XFILLER_2_126 vpwr vgnd scs8hd_fill_2
XFILLER_9_27 vgnd vpwr scs8hd_decap_4
X_186_ _186_/HI _186_/LO vgnd vpwr scs8hd_conb_1
Xmux_bottom_ipin_0.mux_l1_in_0_.TGATE_2_.scs8hd_ebufn_2 mux_bottom_ipin_0.INVTX1_2_.scs8hd_inv_1/Y
+ mem_bottom_ipin_0.LATCH_2_.latch/Q mux_bottom_ipin_0.mux_l1_in_0_.TGATE_2_.scs8hd_ebufn_2/Z
+ vgnd vpwr scs8hd_ebufn_2
XANTENNA__176__A _168_/A vgnd vpwr scs8hd_diode_2
XANTENNA__086__A address[1] vgnd vpwr scs8hd_diode_2
XFILLER_1_3 vgnd vpwr scs8hd_decap_3
XANTENNA_mem_bottom_ipin_7.LATCH_4_.latch_SLEEPB _140_/Y vgnd vpwr scs8hd_diode_2
X_169_ _104_/A _168_/B _169_/Y vgnd vpwr scs8hd_nor2_4
XFILLER_6_251 vpwr vgnd scs8hd_fill_2
XFILLER_10_291 vgnd vpwr scs8hd_decap_8
XANTENNA_mem_bottom_ipin_2.LATCH_4_.latch_D data_in vgnd vpwr scs8hd_diode_2
XANTENNA_mem_bottom_ipin_3.LATCH_2_.latch_D data_in vgnd vpwr scs8hd_diode_2
XANTENNA_mem_bottom_ipin_4.LATCH_0_.latch_D data_in vgnd vpwr scs8hd_diode_2
XFILLER_16_328 vpwr vgnd scs8hd_fill_2
Xmux_bottom_ipin_7.mux_l1_in_1_.TGATE_0_.scs8hd_ebufn_2 mux_bottom_ipin_7.INVTX1_3_.scs8hd_inv_1/Y
+ mem_bottom_ipin_7.LATCH_0_.latch/Q mux_bottom_ipin_7.mux_l1_in_1_.TGATE_1_.scs8hd_ebufn_2/Z
+ vgnd vpwr scs8hd_ebufn_2
XFILLER_6_17 vpwr vgnd scs8hd_fill_2
XFILLER_3_210 vpwr vgnd scs8hd_fill_2
XFILLER_3_265 vpwr vgnd scs8hd_fill_2
XANTENNA__157__C _157_/C vgnd vpwr scs8hd_diode_2
XANTENNA__173__B _172_/X vgnd vpwr scs8hd_diode_2
XFILLER_15_37 vpwr vgnd scs8hd_fill_2
XFILLER_15_26 vgnd vpwr scs8hd_decap_4
XANTENNA_mux_bottom_ipin_2.INVTX1_5_.scs8hd_inv_1_A chanx_right_in[6] vgnd vpwr scs8hd_diode_2
XANTENNA__083__B address[2] vgnd vpwr scs8hd_diode_2
XFILLER_0_213 vgnd vpwr scs8hd_fill_1
XPHY_175 vgnd vpwr scs8hd_tapvpwrvgnd_1
XPHY_164 vgnd vpwr scs8hd_tapvpwrvgnd_1
XFILLER_16_125 vgnd vpwr scs8hd_decap_4
XPHY_153 vgnd vpwr scs8hd_tapvpwrvgnd_1
XPHY_142 vgnd vpwr scs8hd_tapvpwrvgnd_1
XPHY_120 vgnd vpwr scs8hd_tapvpwrvgnd_1
XPHY_131 vgnd vpwr scs8hd_tapvpwrvgnd_1
XPHY_186 vgnd vpwr scs8hd_tapvpwrvgnd_1
XPHY_0 vgnd vpwr scs8hd_decap_3
XANTENNA__168__B _168_/B vgnd vpwr scs8hd_diode_2
XFILLER_7_71 vpwr vgnd scs8hd_fill_2
XANTENNA__094__A address[3] vgnd vpwr scs8hd_diode_2
XANTENNA_mux_bottom_ipin_0.mux_l1_in_1_.TGATE_2_.scs8hd_ebufn_2_A mux_bottom_ipin_0.INVTX1_5_.scs8hd_inv_1/Y
+ vgnd vpwr scs8hd_diode_2
XFILLER_8_154 vgnd vpwr scs8hd_decap_4
XANTENNA_mem_bottom_ipin_7.LATCH_4_.latch_D data_in vgnd vpwr scs8hd_diode_2
XANTENNA__179__A _180_/A vgnd vpwr scs8hd_diode_2
XANTENNA_mem_bottom_ipin_5.LATCH_5_.latch_SLEEPB _123_/Y vgnd vpwr scs8hd_diode_2
XFILLER_12_38 vgnd vpwr scs8hd_fill_1
XANTENNA__080__C address[0] vgnd vpwr scs8hd_diode_2
XANTENNA__089__A address[2] vgnd vpwr scs8hd_diode_2
XFILLER_1_363 vgnd vpwr scs8hd_decap_3
XFILLER_17_220 vgnd vpwr scs8hd_decap_12
XANTENNA__075__C address[3] vgnd vpwr scs8hd_diode_2
Xmux_bottom_ipin_5.INVTX1_1_.scs8hd_inv_1 chanx_right_in[0] mux_bottom_ipin_5.INVTX1_1_.scs8hd_inv_1/Y
+ vgnd vpwr scs8hd_inv_1
XFILLER_3_7 vgnd vpwr scs8hd_fill_1
XFILLER_0_19 vgnd vpwr scs8hd_decap_12
X_185_ _185_/HI _185_/LO vgnd vpwr scs8hd_conb_1
XFILLER_14_289 vgnd vpwr scs8hd_fill_1
XANTENNA_mux_bottom_ipin_7.mux_l1_in_1_.TGATE_1_.scs8hd_ebufn_2_A mux_bottom_ipin_7.INVTX1_4_.scs8hd_inv_1/Y
+ vgnd vpwr scs8hd_diode_2
XANTENNA__176__B _172_/X vgnd vpwr scs8hd_diode_2
XANTENNA__192__A chanx_right_in[8] vgnd vpwr scs8hd_diode_2
XANTENNA__086__B address[2] vgnd vpwr scs8hd_diode_2
Xmux_bottom_ipin_6.INVTX1_5_.scs8hd_inv_1 chanx_right_in[6] mux_bottom_ipin_6.INVTX1_5_.scs8hd_inv_1/Y
+ vgnd vpwr scs8hd_inv_1
Xmem_bottom_ipin_2.LATCH_2_.latch data_in mem_bottom_ipin_2.LATCH_2_.latch/Q _082_/Y
+ vgnd vpwr scs8hd_lpflow_inputisolatch_1
XANTENNA_mux_bottom_ipin_6.mux_l1_in_0_.TGATE_2_.scs8hd_ebufn_2_TEB mem_bottom_ipin_6.LATCH_2_.latch/Q
+ vgnd vpwr scs8hd_diode_2
XFILLER_3_403 vgnd vpwr scs8hd_decap_4
XANTENNA_mux_top_ipin_0.mux_l1_in_0_.TGATE_0_.scs8hd_ebufn_2_TEB mem_top_ipin_0.LATCH_0_.latch/Q
+ vgnd vpwr scs8hd_diode_2
XANTENNA_mux_top_ipin_0.INVTX1_4_.scs8hd_inv_1_A chanx_left_in[8] vgnd vpwr scs8hd_diode_2
X_168_ _168_/A _168_/B _168_/Y vgnd vpwr scs8hd_nor2_4
X_099_ _098_/X _113_/A vgnd vpwr scs8hd_buf_1
XFILLER_1_62 vpwr vgnd scs8hd_fill_2
XFILLER_1_84 vpwr vgnd scs8hd_fill_2
XANTENNA_mux_bottom_ipin_1.mux_l2_in_0_.TGATE_2_.scs8hd_ebufn_2_A _182_/HI vgnd vpwr
+ scs8hd_diode_2
XANTENNA_mux_bottom_ipin_0.INVTX1_2_.scs8hd_inv_1_A chanx_left_in[4] vgnd vpwr scs8hd_diode_2
Xmem_bottom_ipin_4.LATCH_5_.latch data_in mem_bottom_ipin_4.LATCH_5_.latch/Q _112_/Y
+ vgnd vpwr scs8hd_lpflow_inputisolatch_1
XANTENNA__097__A _112_/A vgnd vpwr scs8hd_diode_2
XFILLER_6_29 vpwr vgnd scs8hd_fill_2
Xmux_top_ipin_0.mux_l2_in_0_.TGATE_0_.scs8hd_ebufn_2 mux_top_ipin_0.mux_l1_in_0_.TGATE_2_.scs8hd_ebufn_2/Z
+ mem_top_ipin_0.LATCH_3_.latch/Q mux_top_ipin_0.tap_buf4_0_.scs8hd_inv_1/A vgnd vpwr
+ scs8hd_ebufn_2
XANTENNA_mux_bottom_ipin_4.INVTX1_3_.scs8hd_inv_1_A chanx_right_in[4] vgnd vpwr scs8hd_diode_2
XFILLER_10_60 vpwr vgnd scs8hd_fill_2
XFILLER_10_93 vgnd vpwr scs8hd_decap_4
XFILLER_19_123 vgnd vpwr scs8hd_decap_12
XANTENNA_mux_bottom_ipin_1.mux_l1_in_0_.TGATE_2_.scs8hd_ebufn_2_TEB mem_bottom_ipin_1.LATCH_2_.latch/Q
+ vgnd vpwr scs8hd_diode_2
XANTENNA__083__C _157_/C vgnd vpwr scs8hd_diode_2
XFILLER_0_247 vgnd vpwr scs8hd_fill_1
XFILLER_0_225 vpwr vgnd scs8hd_fill_2
XFILLER_16_104 vpwr vgnd scs8hd_fill_2
XPHY_187 vgnd vpwr scs8hd_tapvpwrvgnd_1
XPHY_176 vgnd vpwr scs8hd_tapvpwrvgnd_1
XPHY_165 vgnd vpwr scs8hd_tapvpwrvgnd_1
XPHY_154 vgnd vpwr scs8hd_tapvpwrvgnd_1
XPHY_143 vgnd vpwr scs8hd_tapvpwrvgnd_1
XPHY_110 vgnd vpwr scs8hd_tapvpwrvgnd_1
XPHY_121 vgnd vpwr scs8hd_tapvpwrvgnd_1
XFILLER_12_310 vgnd vpwr scs8hd_decap_4
XFILLER_12_365 vpwr vgnd scs8hd_fill_2
XPHY_132 vgnd vpwr scs8hd_tapvpwrvgnd_1
XFILLER_8_358 vgnd vpwr scs8hd_decap_4
XFILLER_12_398 vgnd vpwr scs8hd_decap_8
XPHY_1 vgnd vpwr scs8hd_decap_3
XANTENNA_mux_bottom_ipin_4.mux_l1_in_1_.TGATE_2_.scs8hd_ebufn_2_TEB mem_bottom_ipin_4.LATCH_2_.latch/Q
+ vgnd vpwr scs8hd_diode_2
XFILLER_7_391 vgnd vpwr scs8hd_decap_12
XFILLER_13_118 vpwr vgnd scs8hd_fill_2