* NGSPICE file created from cby_0__1_.ext - technology: EFS8A

* Black-box entry subcircuit for scs8hd_fill_2 abstract view
.subckt scs8hd_fill_2 vpwr vgnd
.ends

* Black-box entry subcircuit for scs8hd_diode_2 abstract view
.subckt scs8hd_diode_2 DIODE vgnd vpwr
.ends

* Black-box entry subcircuit for scs8hd_inv_1 abstract view
.subckt scs8hd_inv_1 A Y vgnd vpwr
.ends

* Black-box entry subcircuit for scs8hd_decap_12 abstract view
.subckt scs8hd_decap_12 vgnd vpwr
.ends

* Black-box entry subcircuit for scs8hd_decap_4 abstract view
.subckt scs8hd_decap_4 vgnd vpwr
.ends

* Black-box entry subcircuit for scs8hd_ebufn_2 abstract view
.subckt scs8hd_ebufn_2 A TEB Z vgnd vpwr
.ends

* Black-box entry subcircuit for scs8hd_nor2_4 abstract view
.subckt scs8hd_nor2_4 A B Y vgnd vpwr
.ends

* Black-box entry subcircuit for scs8hd_or3_4 abstract view
.subckt scs8hd_or3_4 A B C X vgnd vpwr
.ends

* Black-box entry subcircuit for scs8hd_decap_3 abstract view
.subckt scs8hd_decap_3 vgnd vpwr
.ends

* Black-box entry subcircuit for scs8hd_decap_8 abstract view
.subckt scs8hd_decap_8 vgnd vpwr
.ends

* Black-box entry subcircuit for scs8hd_lpflow_inputisolatch_1 abstract view
.subckt scs8hd_lpflow_inputisolatch_1 D Q SLEEPB vgnd vpwr
.ends

* Black-box entry subcircuit for scs8hd_tapvpwrvgnd_1 abstract view
.subckt scs8hd_tapvpwrvgnd_1 vgnd vpwr
.ends

* Black-box entry subcircuit for scs8hd_fill_1 abstract view
.subckt scs8hd_fill_1 vgnd vpwr
.ends

* Black-box entry subcircuit for scs8hd_decap_6 abstract view
.subckt scs8hd_decap_6 vgnd vpwr
.ends

* Black-box entry subcircuit for scs8hd_buf_2 abstract view
.subckt scs8hd_buf_2 A X vgnd vpwr
.ends

* Black-box entry subcircuit for scs8hd_buf_1 abstract view
.subckt scs8hd_buf_1 A X vgnd vpwr
.ends

* Black-box entry subcircuit for scs8hd_inv_8 abstract view
.subckt scs8hd_inv_8 A Y vgnd vpwr
.ends

* Black-box entry subcircuit for scs8hd_nor3_4 abstract view
.subckt scs8hd_nor3_4 A B C Y vgnd vpwr
.ends

* Black-box entry subcircuit for scs8hd_conb_1 abstract view
.subckt scs8hd_conb_1 HI LO vgnd vpwr
.ends

* Black-box entry subcircuit for scs8hd_or2_4 abstract view
.subckt scs8hd_or2_4 A B X vgnd vpwr
.ends

* Black-box entry subcircuit for scs8hd_or4_4 abstract view
.subckt scs8hd_or4_4 A B C D X vgnd vpwr
.ends

.subckt cby_0__1_ address[0] address[1] address[2] address[3] address[4] address[5]
+ address[6] chany_bottom_in[0] chany_bottom_in[1] chany_bottom_in[2] chany_bottom_in[3]
+ chany_bottom_in[4] chany_bottom_in[5] chany_bottom_in[6] chany_bottom_in[7] chany_bottom_in[8]
+ chany_bottom_out[0] chany_bottom_out[1] chany_bottom_out[2] chany_bottom_out[3]
+ chany_bottom_out[4] chany_bottom_out[5] chany_bottom_out[6] chany_bottom_out[7]
+ chany_bottom_out[8] chany_top_in[0] chany_top_in[1] chany_top_in[2] chany_top_in[3]
+ chany_top_in[4] chany_top_in[5] chany_top_in[6] chany_top_in[7] chany_top_in[8]
+ chany_top_out[0] chany_top_out[1] chany_top_out[2] chany_top_out[3] chany_top_out[4]
+ chany_top_out[5] chany_top_out[6] chany_top_out[7] chany_top_out[8] data_in enable
+ left_grid_pin_0_ left_grid_pin_10_ left_grid_pin_12_ left_grid_pin_14_ left_grid_pin_2_
+ left_grid_pin_4_ left_grid_pin_6_ left_grid_pin_8_ right_grid_pin_3_ right_grid_pin_7_
+ vpwr vgnd
XFILLER_3_23 vpwr vgnd scs8hd_fill_2
XFILLER_3_12 vpwr vgnd scs8hd_fill_2
XANTENNA__113__B _115_/B vgnd vpwr scs8hd_diode_2
XANTENNA_mux_right_ipin_6.mux_l2_in_0_.TGATE_1_.scs8hd_ebufn_2_TEB mem_right_ipin_6.LATCH_4_.latch/Q
+ vgnd vpwr scs8hd_diode_2
Xmux_right_ipin_4.INVTX1_2_.scs8hd_inv_1 chany_bottom_in[5] mux_right_ipin_4.INVTX1_2_.scs8hd_inv_1/Y
+ vgnd vpwr scs8hd_inv_1
XFILLER_63_39 vgnd vpwr scs8hd_decap_12
XFILLER_10_114 vgnd vpwr scs8hd_decap_12
XFILLER_12_32 vpwr vgnd scs8hd_fill_2
XFILLER_12_43 vpwr vgnd scs8hd_fill_2
XFILLER_12_87 vgnd vpwr scs8hd_decap_4
XANTENNA__108__B _106_/B vgnd vpwr scs8hd_diode_2
XANTENNA__124__A _116_/A vgnd vpwr scs8hd_diode_2
Xmux_right_ipin_0.mux_l1_in_0_.TGATE_2_.scs8hd_ebufn_2 mux_right_ipin_0.INVTX1_2_.scs8hd_inv_1/Y
+ mem_right_ipin_0.LATCH_2_.latch/Q mux_right_ipin_0.mux_l1_in_0_.TGATE_2_.scs8hd_ebufn_2/Z
+ vgnd vpwr scs8hd_ebufn_2
XANTENNA_mem_right_ipin_6.LATCH_3_.latch_SLEEPB _131_/Y vgnd vpwr scs8hd_diode_2
XANTENNA_mem_left_ipin_0.LATCH_1_.latch_SLEEPB _169_/Y vgnd vpwr scs8hd_diode_2
XANTENNA_mux_left_ipin_0.mux_l2_in_0_.TGATE_0_.scs8hd_ebufn_2_TEB mem_left_ipin_0.LATCH_3_.latch/Q
+ vgnd vpwr scs8hd_diode_2
XANTENNA_mux_right_ipin_1.mux_l2_in_0_.TGATE_1_.scs8hd_ebufn_2_TEB mem_right_ipin_1.LATCH_4_.latch/Q
+ vgnd vpwr scs8hd_diode_2
X_131_ _139_/A _133_/B _131_/Y vgnd vpwr scs8hd_nor2_4
XFILLER_23_42 vpwr vgnd scs8hd_fill_2
XFILLER_23_53 vpwr vgnd scs8hd_fill_2
XFILLER_23_75 vpwr vgnd scs8hd_fill_2
XFILLER_23_97 vpwr vgnd scs8hd_fill_2
X_062_ address[1] address[2] address[0] _062_/X vgnd vpwr scs8hd_or3_4
XFILLER_2_132 vgnd vpwr scs8hd_decap_12
XANTENNA__110__C _099_/X vgnd vpwr scs8hd_diode_2
XFILLER_9_99 vpwr vgnd scs8hd_fill_2
XFILLER_9_66 vgnd vpwr scs8hd_decap_3
XANTENNA__119__A _119_/A vgnd vpwr scs8hd_diode_2
XFILLER_50_3 vgnd vpwr scs8hd_decap_12
XFILLER_47_117 vgnd vpwr scs8hd_decap_4
Xmux_right_ipin_7.mux_l1_in_1_.TGATE_0_.scs8hd_ebufn_2 mux_right_ipin_7.INVTX1_3_.scs8hd_inv_1/Y
+ mem_right_ipin_7.LATCH_0_.latch/Q mux_right_ipin_7.mux_l1_in_1_.TGATE_2_.scs8hd_ebufn_2/Z
+ vgnd vpwr scs8hd_ebufn_2
XFILLER_50_84 vgnd vpwr scs8hd_decap_3
X_114_ _073_/X _115_/B _114_/Y vgnd vpwr scs8hd_nor2_4
XFILLER_38_117 vgnd vpwr scs8hd_decap_8
XFILLER_38_128 vgnd vpwr scs8hd_decap_12
XANTENNA__121__B _120_/B vgnd vpwr scs8hd_diode_2
XFILLER_61_120 vpwr vgnd scs8hd_fill_2
XFILLER_39_19 vpwr vgnd scs8hd_fill_2
XFILLER_29_117 vgnd vpwr scs8hd_decap_4
XFILLER_52_131 vgnd vpwr scs8hd_decap_12
Xmem_right_ipin_2.LATCH_1_.latch data_in mem_right_ipin_2.LATCH_1_.latch/Q _097_/Y
+ vgnd vpwr scs8hd_lpflow_inputisolatch_1
XANTENNA_mux_right_ipin_2.mux_l1_in_1_.TGATE_2_.scs8hd_ebufn_2_A mux_right_ipin_2.INVTX1_5_.scs8hd_inv_1/Y
+ vgnd vpwr scs8hd_diode_2
XFILLER_20_54 vgnd vpwr scs8hd_decap_8
XFILLER_20_65 vpwr vgnd scs8hd_fill_2
XFILLER_29_85 vpwr vgnd scs8hd_fill_2
XFILLER_35_109 vpwr vgnd scs8hd_fill_2
XANTENNA__116__B _115_/B vgnd vpwr scs8hd_diode_2
XANTENNA__132__A _132_/A vgnd vpwr scs8hd_diode_2
XFILLER_13_3 vgnd vpwr scs8hd_decap_12
Xmem_right_ipin_4.LATCH_4_.latch data_in mem_right_ipin_4.LATCH_4_.latch/Q _113_/Y
+ vgnd vpwr scs8hd_lpflow_inputisolatch_1
XFILLER_15_32 vpwr vgnd scs8hd_fill_2
XANTENNA_mux_right_ipin_2.INVTX1_5_.scs8hd_inv_1_A chany_top_in[8] vgnd vpwr scs8hd_diode_2
XANTENNA_mem_right_ipin_4.LATCH_4_.latch_SLEEPB _113_/Y vgnd vpwr scs8hd_diode_2
XFILLER_31_75 vpwr vgnd scs8hd_fill_2
XFILLER_31_86 vpwr vgnd scs8hd_fill_2
XFILLER_56_83 vpwr vgnd scs8hd_fill_2
XFILLER_56_72 vpwr vgnd scs8hd_fill_2
XFILLER_16_131 vgnd vpwr scs8hd_decap_12
XPHY_170 vgnd vpwr scs8hd_tapvpwrvgnd_1
XANTENNA__127__A address[5] vgnd vpwr scs8hd_diode_2
XFILLER_31_123 vgnd vpwr scs8hd_decap_12
XPHY_181 vgnd vpwr scs8hd_tapvpwrvgnd_1
XPHY_192 vgnd vpwr scs8hd_tapvpwrvgnd_1
XFILLER_22_145 vgnd vpwr scs8hd_fill_1
XANTENNA_mux_right_ipin_3.mux_l2_in_0_.TGATE_0_.scs8hd_ebufn_2_TEB mem_right_ipin_3.LATCH_3_.latch/Q
+ vgnd vpwr scs8hd_diode_2
XANTENNA_mux_left_ipin_0.mux_l1_in_1_.TGATE_0_.scs8hd_ebufn_2_A mux_left_ipin_0.INVTX1_3_.scs8hd_inv_1/Y
+ vgnd vpwr scs8hd_diode_2
XFILLER_13_123 vgnd vpwr scs8hd_decap_12
XFILLER_42_52 vgnd vpwr scs8hd_decap_6
XFILLER_3_57 vpwr vgnd scs8hd_fill_2
XFILLER_6_108 vgnd vpwr scs8hd_decap_12
XFILLER_10_126 vgnd vpwr scs8hd_decap_12
XFILLER_12_55 vpwr vgnd scs8hd_fill_2
XFILLER_37_30 vpwr vgnd scs8hd_fill_2
XFILLER_53_95 vpwr vgnd scs8hd_fill_2
XANTENNA_mux_right_ipin_3.mux_l2_in_0_.TGATE_2_.scs8hd_ebufn_2_A _175_/HI vgnd vpwr
+ scs8hd_diode_2
XANTENNA__124__B _120_/B vgnd vpwr scs8hd_diode_2
XANTENNA__140__A _132_/A vgnd vpwr scs8hd_diode_2
Xmux_right_ipin_2.INVTX1_2_.scs8hd_inv_1 chany_bottom_in[4] mux_right_ipin_2.INVTX1_2_.scs8hd_inv_1/Y
+ vgnd vpwr scs8hd_inv_1
X_130_ _138_/A _133_/B _130_/Y vgnd vpwr scs8hd_nor2_4
XFILLER_48_51 vgnd vpwr scs8hd_decap_3
XFILLER_2_144 vpwr vgnd scs8hd_fill_2
XFILLER_64_94 vgnd vpwr scs8hd_decap_12
XFILLER_0_36 vgnd vpwr scs8hd_decap_3
XFILLER_0_58 vpwr vgnd scs8hd_fill_2
XANTENNA_mem_right_ipin_2.LATCH_5_.latch_SLEEPB _093_/Y vgnd vpwr scs8hd_diode_2
XANTENNA__135__A address[5] vgnd vpwr scs8hd_diode_2
XFILLER_43_3 vgnd vpwr scs8hd_decap_12
XANTENNA_mem_right_ipin_0.LATCH_5_.latch_D data_in vgnd vpwr scs8hd_diode_2
XFILLER_18_32 vgnd vpwr scs8hd_decap_6
XFILLER_18_54 vgnd vpwr scs8hd_decap_4
Xmux_left_ipin_1.mux_l2_in_0_.TGATE_0_.scs8hd_ebufn_2 mux_left_ipin_1.mux_l2_in_0_.TGATE_0_.scs8hd_ebufn_2/A
+ _145_/A mux_left_ipin_1.tap_buf4_0_.scs8hd_inv_1/A vgnd vpwr scs8hd_ebufn_2
XANTENNA_mem_right_ipin_1.LATCH_3_.latch_D data_in vgnd vpwr scs8hd_diode_2
XFILLER_34_42 vgnd vpwr scs8hd_decap_12
X_113_ _071_/X _115_/B _113_/Y vgnd vpwr scs8hd_nor2_4
XFILLER_59_83 vpwr vgnd scs8hd_fill_2
XANTENNA_mem_right_ipin_2.LATCH_1_.latch_D data_in vgnd vpwr scs8hd_diode_2
Xmem_right_ipin_5.LATCH_0_.latch data_in mem_right_ipin_5.LATCH_0_.latch/Q _125_/Y
+ vgnd vpwr scs8hd_lpflow_inputisolatch_1
XFILLER_61_143 vgnd vpwr scs8hd_decap_3
XANTENNA_mux_left_ipin_1.mux_l2_in_0_.TGATE_0_.scs8hd_ebufn_2_A mux_left_ipin_1.mux_l2_in_0_.TGATE_0_.scs8hd_ebufn_2/A
+ vgnd vpwr scs8hd_diode_2
XFILLER_52_143 vgnd vpwr scs8hd_decap_3
XANTENNA_mux_right_ipin_0.INVTX1_2_.scs8hd_inv_1_A chany_bottom_in[2] vgnd vpwr scs8hd_diode_2
XFILLER_20_88 vgnd vpwr scs8hd_decap_4
XFILLER_45_52 vgnd vpwr scs8hd_decap_3
XFILLER_43_132 vpwr vgnd scs8hd_fill_2
XFILLER_61_95 vpwr vgnd scs8hd_fill_2
XFILLER_61_51 vgnd vpwr scs8hd_decap_8
Xmem_right_ipin_7.LATCH_3_.latch data_in mem_right_ipin_7.LATCH_3_.latch/Q _139_/Y
+ vgnd vpwr scs8hd_lpflow_inputisolatch_1
XFILLER_6_24 vgnd vpwr scs8hd_fill_1
XANTENNA_mux_right_ipin_6.mux_l1_in_0_.TGATE_1_.scs8hd_ebufn_2_A mux_right_ipin_6.INVTX1_1_.scs8hd_inv_1/Y
+ vgnd vpwr scs8hd_diode_2
XANTENNA__132__B _133_/B vgnd vpwr scs8hd_diode_2
XANTENNA_mux_right_ipin_4.INVTX1_3_.scs8hd_inv_1_A chany_top_in[5] vgnd vpwr scs8hd_diode_2
XFILLER_6_79 vgnd vpwr scs8hd_decap_8
XFILLER_34_143 vgnd vpwr scs8hd_decap_3
XFILLER_15_11 vgnd vpwr scs8hd_decap_3
XFILLER_15_55 vgnd vpwr scs8hd_fill_1
XFILLER_15_66 vgnd vpwr scs8hd_fill_1
XFILLER_31_54 vgnd vpwr scs8hd_decap_4
XPHY_160 vgnd vpwr scs8hd_tapvpwrvgnd_1
XFILLER_16_143 vgnd vpwr scs8hd_decap_3
XPHY_171 vgnd vpwr scs8hd_tapvpwrvgnd_1
XPHY_182 vgnd vpwr scs8hd_tapvpwrvgnd_1
XPHY_193 vgnd vpwr scs8hd_tapvpwrvgnd_1
XANTENNA__127__B _127_/B vgnd vpwr scs8hd_diode_2
XFILLER_31_135 vgnd vpwr scs8hd_decap_8
XANTENNA__143__A _067_/X vgnd vpwr scs8hd_diode_2
XANTENNA_mem_right_ipin_5.LATCH_5_.latch_D data_in vgnd vpwr scs8hd_diode_2
XANTENNA_mem_left_ipin_0.LATCH_2_.latch_D data_in vgnd vpwr scs8hd_diode_2
XFILLER_26_32 vpwr vgnd scs8hd_fill_2
XANTENNA_mem_right_ipin_6.LATCH_3_.latch_D data_in vgnd vpwr scs8hd_diode_2
XFILLER_13_135 vgnd vpwr scs8hd_decap_8
XANTENNA_mem_left_ipin_1.LATCH_0_.latch_D data_in vgnd vpwr scs8hd_diode_2
XFILLER_26_43 vpwr vgnd scs8hd_fill_2
XANTENNA_mem_right_ipin_7.LATCH_1_.latch_D data_in vgnd vpwr scs8hd_diode_2
XFILLER_3_36 vgnd vpwr scs8hd_decap_3
XANTENNA__138__A _138_/A vgnd vpwr scs8hd_diode_2
Xmux_right_ipin_6.mux_l1_in_1_.TGATE_0_.scs8hd_ebufn_2 mux_right_ipin_6.INVTX1_3_.scs8hd_inv_1/Y
+ mem_right_ipin_6.LATCH_0_.latch/Q mux_right_ipin_6.mux_l1_in_1_.TGATE_0_.scs8hd_ebufn_2/Z
+ vgnd vpwr scs8hd_ebufn_2
XFILLER_10_138 vgnd vpwr scs8hd_decap_8
XFILLER_37_53 vgnd vpwr scs8hd_decap_4
XFILLER_37_75 vgnd vpwr scs8hd_fill_1
XFILLER_53_52 vpwr vgnd scs8hd_fill_2
XANTENNA__140__B _140_/B vgnd vpwr scs8hd_diode_2
XANTENNA_mux_right_ipin_0.tap_buf4_0_.scs8hd_inv_1_A mux_right_ipin_0.tap_buf4_0_.scs8hd_inv_1/A
+ vgnd vpwr scs8hd_diode_2
XFILLER_59_127 vpwr vgnd scs8hd_fill_2
XFILLER_23_11 vgnd vpwr scs8hd_fill_1
XFILLER_23_88 vpwr vgnd scs8hd_fill_2
XFILLER_3_3 vpwr vgnd scs8hd_fill_2
XFILLER_48_63 vpwr vgnd scs8hd_fill_2
XFILLER_9_35 vpwr vgnd scs8hd_fill_2
X_189_ chany_bottom_in[8] chany_top_out[8] vgnd vpwr scs8hd_buf_2
XANTENNA__135__B _127_/B vgnd vpwr scs8hd_diode_2
XFILLER_36_3 vgnd vpwr scs8hd_decap_12
XANTENNA__151__A _129_/A vgnd vpwr scs8hd_diode_2
XFILLER_18_88 vpwr vgnd scs8hd_fill_2
XFILLER_34_32 vgnd vpwr scs8hd_fill_1
XFILLER_34_54 vpwr vgnd scs8hd_fill_2
X_112_ _156_/A _115_/B _112_/Y vgnd vpwr scs8hd_nor2_4
XFILLER_59_95 vpwr vgnd scs8hd_fill_2
XFILLER_59_62 vpwr vgnd scs8hd_fill_2
Xmux_right_ipin_0.INVTX1_2_.scs8hd_inv_1 chany_bottom_in[2] mux_right_ipin_0.INVTX1_2_.scs8hd_inv_1/Y
+ vgnd vpwr scs8hd_inv_1
XFILLER_46_130 vgnd vpwr scs8hd_decap_12
XANTENNA_mux_right_ipin_2.INVTX1_0_.scs8hd_inv_1_A chany_bottom_in[3] vgnd vpwr scs8hd_diode_2
XANTENNA__146__A _146_/A vgnd vpwr scs8hd_diode_2
Xmux_left_ipin_1.tap_buf4_0_.scs8hd_inv_1 mux_left_ipin_1.tap_buf4_0_.scs8hd_inv_1/A
+ right_grid_pin_7_ vgnd vpwr scs8hd_inv_1
XFILLER_37_130 vgnd vpwr scs8hd_decap_4
XFILLER_37_141 vgnd vpwr scs8hd_decap_4
XANTENNA_mux_right_ipin_6.INVTX1_1_.scs8hd_inv_1_A chany_top_in[3] vgnd vpwr scs8hd_diode_2
XANTENNA_mux_right_ipin_3.mux_l1_in_1_.TGATE_2_.scs8hd_ebufn_2_A mux_right_ipin_3.INVTX1_5_.scs8hd_inv_1/Y
+ vgnd vpwr scs8hd_diode_2
XFILLER_20_23 vgnd vpwr scs8hd_decap_4
XFILLER_29_98 vpwr vgnd scs8hd_fill_2
XFILLER_45_86 vpwr vgnd scs8hd_fill_2
XFILLER_45_75 vgnd vpwr scs8hd_decap_4
XFILLER_43_144 vpwr vgnd scs8hd_fill_2
XFILLER_61_74 vgnd vpwr scs8hd_decap_3
XFILLER_6_58 vgnd vpwr scs8hd_decap_8
XFILLER_6_47 vpwr vgnd scs8hd_fill_2
XANTENNA_mem_right_ipin_7.LATCH_5_.latch_SLEEPB _137_/Y vgnd vpwr scs8hd_diode_2
XANTENNA_mem_right_ipin_1.LATCH_0_.latch_SLEEPB _089_/Y vgnd vpwr scs8hd_diode_2
Xmux_left_ipin_0.INVTX1_1_.scs8hd_inv_1 chany_top_in[0] mux_left_ipin_0.INVTX1_1_.scs8hd_inv_1/Y
+ vgnd vpwr scs8hd_inv_1
XANTENNA_mux_right_ipin_6.mux_l1_in_0_.TGATE_2_.scs8hd_ebufn_2_TEB mem_right_ipin_6.LATCH_2_.latch/Q
+ vgnd vpwr scs8hd_diode_2
XPHY_150 vgnd vpwr scs8hd_tapvpwrvgnd_1
XPHY_161 vgnd vpwr scs8hd_tapvpwrvgnd_1
XPHY_172 vgnd vpwr scs8hd_tapvpwrvgnd_1
XPHY_183 vgnd vpwr scs8hd_tapvpwrvgnd_1
XANTENNA__127__C _154_/C vgnd vpwr scs8hd_diode_2
XPHY_194 vgnd vpwr scs8hd_tapvpwrvgnd_1
XFILLER_31_103 vpwr vgnd scs8hd_fill_2
XANTENNA__143__B _101_/X vgnd vpwr scs8hd_diode_2
Xmux_right_ipin_7.INVTX1_3_.scs8hd_inv_1 chany_top_in[4] mux_right_ipin_7.INVTX1_3_.scs8hd_inv_1/Y
+ vgnd vpwr scs8hd_inv_1
XFILLER_42_87 vgnd vpwr scs8hd_decap_4
XFILLER_42_76 vpwr vgnd scs8hd_fill_2
XFILLER_42_32 vpwr vgnd scs8hd_fill_2
XFILLER_26_88 vpwr vgnd scs8hd_fill_2
Xmem_right_ipin_0.LATCH_4_.latch data_in mem_right_ipin_0.LATCH_4_.latch/Q _072_/Y
+ vgnd vpwr scs8hd_lpflow_inputisolatch_1
XANTENNA__138__B _140_/B vgnd vpwr scs8hd_diode_2
XANTENNA_mux_left_ipin_0.mux_l1_in_0_.TGATE_1_.scs8hd_ebufn_2_TEB mem_left_ipin_0.LATCH_1_.latch/Q
+ vgnd vpwr scs8hd_diode_2
XANTENNA__154__A address[5] vgnd vpwr scs8hd_diode_2
Xmux_left_ipin_0.mux_l2_in_0_.TGATE_0_.scs8hd_ebufn_2 mux_left_ipin_0.mux_l1_in_0_.TGATE_2_.scs8hd_ebufn_2/Z
+ mem_left_ipin_0.LATCH_3_.latch/Q mux_left_ipin_0.tap_buf4_0_.scs8hd_inv_1/A vgnd
+ vpwr scs8hd_ebufn_2
XANTENNA_mux_right_ipin_1.mux_l1_in_0_.TGATE_2_.scs8hd_ebufn_2_TEB mem_right_ipin_1.LATCH_2_.latch/Q
+ vgnd vpwr scs8hd_diode_2
XANTENNA__064__A _166_/A vgnd vpwr scs8hd_diode_2
XFILLER_12_68 vpwr vgnd scs8hd_fill_2
XFILLER_12_79 vpwr vgnd scs8hd_fill_2
XFILLER_53_75 vgnd vpwr scs8hd_decap_4
XFILLER_5_143 vgnd vpwr scs8hd_decap_3
XANTENNA_mux_right_ipin_4.mux_l2_in_0_.TGATE_2_.scs8hd_ebufn_2_A _176_/HI vgnd vpwr
+ scs8hd_diode_2
XANTENNA__149__A address[1] vgnd vpwr scs8hd_diode_2
XFILLER_23_23 vpwr vgnd scs8hd_fill_2
XANTENNA_mux_right_ipin_4.mux_l1_in_1_.TGATE_2_.scs8hd_ebufn_2_TEB mem_right_ipin_4.LATCH_2_.latch/Q
+ vgnd vpwr scs8hd_diode_2
XFILLER_48_86 vgnd vpwr scs8hd_decap_6
XANTENNA_mux_right_ipin_0.mux_l1_in_0_.TGATE_2_.scs8hd_ebufn_2_A mux_right_ipin_0.INVTX1_2_.scs8hd_inv_1/Y
+ vgnd vpwr scs8hd_diode_2
XFILLER_0_27 vgnd vpwr scs8hd_decap_4
XFILLER_64_63 vgnd vpwr scs8hd_decap_12
X_188_ chany_top_in[0] chany_bottom_out[0] vgnd vpwr scs8hd_buf_2
XANTENNA__135__C _066_/C vgnd vpwr scs8hd_diode_2
XFILLER_29_3 vgnd vpwr scs8hd_decap_6
XFILLER_55_131 vgnd vpwr scs8hd_decap_12
XFILLER_47_109 vpwr vgnd scs8hd_fill_2
XFILLER_18_23 vgnd vpwr scs8hd_decap_4
XFILLER_18_67 vgnd vpwr scs8hd_decap_4
XFILLER_50_32 vgnd vpwr scs8hd_decap_12
X_111_ _110_/X _115_/B vgnd vpwr scs8hd_buf_1
XFILLER_61_123 vgnd vpwr scs8hd_decap_12
XFILLER_46_142 vgnd vpwr scs8hd_decap_4
XANTENNA__162__A _162_/A vgnd vpwr scs8hd_diode_2
XFILLER_29_109 vpwr vgnd scs8hd_fill_2
XFILLER_1_70 vgnd vpwr scs8hd_decap_4
XANTENNA__072__A _071_/X vgnd vpwr scs8hd_diode_2
XFILLER_20_35 vpwr vgnd scs8hd_fill_2
XFILLER_29_11 vgnd vpwr scs8hd_decap_3
XFILLER_29_22 vgnd vpwr scs8hd_decap_3
XFILLER_43_112 vpwr vgnd scs8hd_fill_2
XANTENNA_mux_right_ipin_0.mux_l2_in_0_.TGATE_0_.scs8hd_ebufn_2_A mux_right_ipin_0.mux_l1_in_0_.TGATE_2_.scs8hd_ebufn_2/Z
+ vgnd vpwr scs8hd_diode_2
XFILLER_29_55 vgnd vpwr scs8hd_decap_4
XFILLER_29_77 vpwr vgnd scs8hd_fill_2
XFILLER_61_86 vpwr vgnd scs8hd_fill_2
XANTENNA_mux_right_ipin_7.mux_l1_in_0_.TGATE_1_.scs8hd_ebufn_2_A mux_right_ipin_7.INVTX1_1_.scs8hd_inv_1/Y
+ vgnd vpwr scs8hd_diode_2
Xmux_right_ipin_5.mux_l1_in_1_.TGATE_0_.scs8hd_ebufn_2 mux_right_ipin_5.INVTX1_3_.scs8hd_inv_1/Y
+ mem_right_ipin_5.LATCH_0_.latch/Q mux_right_ipin_5.mux_l2_in_0_.TGATE_1_.scs8hd_ebufn_2/A
+ vgnd vpwr scs8hd_ebufn_2
XFILLER_34_123 vgnd vpwr scs8hd_decap_12
XANTENNA__157__A address[1] vgnd vpwr scs8hd_diode_2
XANTENNA_mux_right_ipin_3.mux_l1_in_0_.TGATE_1_.scs8hd_ebufn_2_TEB mem_right_ipin_3.LATCH_1_.latch/Q
+ vgnd vpwr scs8hd_diode_2
Xmem_right_ipin_1.LATCH_0_.latch data_in mem_right_ipin_1.LATCH_0_.latch/Q _089_/Y
+ vgnd vpwr scs8hd_lpflow_inputisolatch_1
XFILLER_40_104 vpwr vgnd scs8hd_fill_2
XFILLER_15_24 vgnd vpwr scs8hd_fill_1
XFILLER_25_134 vgnd vpwr scs8hd_fill_1
XFILLER_25_145 vgnd vpwr scs8hd_fill_1
XANTENNA__067__A _066_/X vgnd vpwr scs8hd_diode_2
XFILLER_31_45 vgnd vpwr scs8hd_decap_3
XFILLER_56_53 vpwr vgnd scs8hd_fill_2
XFILLER_31_115 vgnd vpwr scs8hd_decap_6
XPHY_151 vgnd vpwr scs8hd_tapvpwrvgnd_1
XPHY_140 vgnd vpwr scs8hd_tapvpwrvgnd_1
XPHY_162 vgnd vpwr scs8hd_tapvpwrvgnd_1
XPHY_173 vgnd vpwr scs8hd_tapvpwrvgnd_1
XPHY_184 vgnd vpwr scs8hd_tapvpwrvgnd_1
XPHY_195 vgnd vpwr scs8hd_tapvpwrvgnd_1
XANTENNA__143__C _161_/C vgnd vpwr scs8hd_diode_2
Xmux_left_ipin_0.mux_l1_in_1_.TGATE_1_.scs8hd_ebufn_2 mux_left_ipin_0.INVTX1_4_.scs8hd_inv_1/Y
+ mem_left_ipin_0.LATCH_1_.latch/Q mux_left_ipin_0.mux_l2_in_0_.TGATE_1_.scs8hd_ebufn_2/A
+ vgnd vpwr scs8hd_ebufn_2
XFILLER_11_3 vgnd vpwr scs8hd_decap_12
XFILLER_22_104 vgnd vpwr scs8hd_decap_8
XFILLER_22_115 vgnd vpwr scs8hd_decap_12
Xmem_right_ipin_3.LATCH_3_.latch data_in mem_right_ipin_3.LATCH_3_.latch/Q _106_/Y
+ vgnd vpwr scs8hd_lpflow_inputisolatch_1
XFILLER_7_80 vpwr vgnd scs8hd_fill_2
XANTENNA_mux_right_ipin_6.mux_l1_in_1_.TGATE_1_.scs8hd_ebufn_2_TEB mem_right_ipin_6.LATCH_1_.latch/Q
+ vgnd vpwr scs8hd_diode_2
XFILLER_26_67 vgnd vpwr scs8hd_decap_3
XFILLER_42_11 vgnd vpwr scs8hd_decap_3
XFILLER_59_3 vgnd vpwr scs8hd_decap_12
XANTENNA__154__B address[6] vgnd vpwr scs8hd_diode_2
XANTENNA__064__B _134_/A vgnd vpwr scs8hd_diode_2
XANTENNA__080__A _117_/A vgnd vpwr scs8hd_diode_2
XFILLER_12_47 vpwr vgnd scs8hd_fill_2
Xmux_right_ipin_5.INVTX1_3_.scs8hd_inv_1 chany_top_in[6] mux_right_ipin_5.INVTX1_3_.scs8hd_inv_1/Y
+ vgnd vpwr scs8hd_inv_1
XFILLER_37_22 vgnd vpwr scs8hd_decap_3
XANTENNA_mem_right_ipin_6.LATCH_0_.latch_SLEEPB _134_/Y vgnd vpwr scs8hd_diode_2
XANTENNA_mux_left_ipin_0.mux_l1_in_1_.TGATE_0_.scs8hd_ebufn_2_TEB mem_left_ipin_0.LATCH_0_.latch/Q
+ vgnd vpwr scs8hd_diode_2
XFILLER_37_88 vpwr vgnd scs8hd_fill_2
XANTENNA_mux_right_ipin_1.mux_l1_in_1_.TGATE_1_.scs8hd_ebufn_2_TEB mem_right_ipin_1.LATCH_1_.latch/Q
+ vgnd vpwr scs8hd_diode_2
XANTENNA__149__B _149_/B vgnd vpwr scs8hd_diode_2
XANTENNA__165__A _164_/X vgnd vpwr scs8hd_diode_2
XFILLER_23_46 vpwr vgnd scs8hd_fill_2
XFILLER_23_57 vpwr vgnd scs8hd_fill_2
XANTENNA__075__A _132_/A vgnd vpwr scs8hd_diode_2
XFILLER_48_43 vpwr vgnd scs8hd_fill_2
XFILLER_48_32 vgnd vpwr scs8hd_decap_8
XFILLER_64_75 vgnd vpwr scs8hd_decap_12
XFILLER_9_15 vgnd vpwr scs8hd_decap_4
X_187_ chany_top_in[1] chany_bottom_out[1] vgnd vpwr scs8hd_buf_2
XFILLER_13_90 vgnd vpwr scs8hd_decap_3
XANTENNA__135__D _101_/X vgnd vpwr scs8hd_diode_2
XANTENNA_mux_right_ipin_5.mux_l1_in_0_.TGATE_0_.scs8hd_ebufn_2_TEB mem_right_ipin_5.LATCH_0_.latch/Q
+ vgnd vpwr scs8hd_diode_2
XANTENNA_mux_right_ipin_5.tap_buf4_0_.scs8hd_inv_1_A mux_right_ipin_5.tap_buf4_0_.scs8hd_inv_1/A
+ vgnd vpwr scs8hd_diode_2
Xmem_left_ipin_0.LATCH_4_.latch data_in mem_left_ipin_0.LATCH_4_.latch/Q _159_/Y vgnd
+ vpwr scs8hd_lpflow_inputisolatch_1
XFILLER_55_143 vgnd vpwr scs8hd_decap_3
X_110_ _065_/Y address[3] _099_/X _110_/X vgnd vpwr scs8hd_or3_4
XFILLER_34_89 vgnd vpwr scs8hd_fill_1
XFILLER_59_53 vpwr vgnd scs8hd_fill_2
XFILLER_61_135 vgnd vpwr scs8hd_decap_8
XFILLER_41_3 vgnd vpwr scs8hd_decap_8
XFILLER_37_121 vgnd vpwr scs8hd_fill_1
XFILLER_52_102 vpwr vgnd scs8hd_fill_2
XANTENNA__072__B _076_/B vgnd vpwr scs8hd_diode_2
XANTENNA_mux_right_ipin_4.mux_l1_in_1_.TGATE_2_.scs8hd_ebufn_2_A mux_right_ipin_4.INVTX1_5_.scs8hd_inv_1/Y
+ vgnd vpwr scs8hd_diode_2
XANTENNA_mux_right_ipin_0.mux_l1_in_0_.TGATE_0_.scs8hd_ebufn_2_TEB mem_right_ipin_0.LATCH_0_.latch/Q
+ vgnd vpwr scs8hd_diode_2
XANTENNA_mux_right_ipin_1.INVTX1_4_.scs8hd_inv_1_A chany_bottom_in[7] vgnd vpwr scs8hd_diode_2
XFILLER_20_69 vpwr vgnd scs8hd_fill_2
XFILLER_29_34 vgnd vpwr scs8hd_decap_3
XFILLER_6_16 vgnd vpwr scs8hd_decap_8
XFILLER_6_27 vgnd vpwr scs8hd_decap_4
XANTENNA_mem_right_ipin_4.LATCH_1_.latch_SLEEPB _116_/Y vgnd vpwr scs8hd_diode_2
XFILLER_19_143 vgnd vpwr scs8hd_decap_3
XANTENNA_mux_right_ipin_5.INVTX1_5_.scs8hd_inv_1_A chany_top_in[7] vgnd vpwr scs8hd_diode_2
XFILLER_34_102 vpwr vgnd scs8hd_fill_2
XFILLER_34_135 vgnd vpwr scs8hd_decap_8
XANTENNA__157__B _149_/B vgnd vpwr scs8hd_diode_2
XANTENNA__083__A _082_/X vgnd vpwr scs8hd_diode_2
XFILLER_15_47 vpwr vgnd scs8hd_fill_2
XFILLER_15_58 vgnd vpwr scs8hd_decap_3
Xmem_right_ipin_6.LATCH_2_.latch data_in mem_right_ipin_6.LATCH_2_.latch/Q _132_/Y
+ vgnd vpwr scs8hd_lpflow_inputisolatch_1
XFILLER_56_32 vgnd vpwr scs8hd_decap_12
XFILLER_56_87 vpwr vgnd scs8hd_fill_2
XFILLER_56_76 vpwr vgnd scs8hd_fill_2
XPHY_141 vgnd vpwr scs8hd_tapvpwrvgnd_1
XPHY_130 vgnd vpwr scs8hd_tapvpwrvgnd_1
XPHY_152 vgnd vpwr scs8hd_tapvpwrvgnd_1
XANTENNA_mux_right_ipin_3.mux_l1_in_1_.TGATE_0_.scs8hd_ebufn_2_TEB mem_right_ipin_3.LATCH_0_.latch/Q
+ vgnd vpwr scs8hd_diode_2
XFILLER_16_102 vgnd vpwr scs8hd_decap_8
XPHY_163 vgnd vpwr scs8hd_tapvpwrvgnd_1
XPHY_174 vgnd vpwr scs8hd_tapvpwrvgnd_1
XPHY_185 vgnd vpwr scs8hd_tapvpwrvgnd_1
XPHY_196 vgnd vpwr scs8hd_tapvpwrvgnd_1
XANTENNA__168__A _168_/A vgnd vpwr scs8hd_diode_2
XFILLER_22_127 vgnd vpwr scs8hd_decap_12
XANTENNA__078__A _116_/A vgnd vpwr scs8hd_diode_2
XFILLER_26_79 vgnd vpwr scs8hd_decap_3
XFILLER_42_23 vgnd vpwr scs8hd_decap_8
XANTENNA__154__C _154_/C vgnd vpwr scs8hd_diode_2
XANTENNA_mux_right_ipin_0.mux_l1_in_1_.TGATE_0_.scs8hd_ebufn_2_A mux_right_ipin_0.INVTX1_3_.scs8hd_inv_1/Y
+ vgnd vpwr scs8hd_diode_2
XFILLER_12_15 vgnd vpwr scs8hd_decap_12
XANTENNA__080__B _076_/B vgnd vpwr scs8hd_diode_2
XFILLER_37_34 vpwr vgnd scs8hd_fill_2
XFILLER_37_78 vgnd vpwr scs8hd_fill_1
XFILLER_53_99 vpwr vgnd scs8hd_fill_2
XFILLER_5_123 vgnd vpwr scs8hd_decap_12
Xmem_left_ipin_1.LATCH_0_.latch data_in _146_/A _144_/Y vgnd vpwr scs8hd_lpflow_inputisolatch_1
XANTENNA_mux_right_ipin_5.mux_l2_in_0_.TGATE_2_.scs8hd_ebufn_2_A _177_/HI vgnd vpwr
+ scs8hd_diode_2
XANTENNA_mem_right_ipin_2.LATCH_4_.latch_D data_in vgnd vpwr scs8hd_diode_2
XANTENNA__149__C _161_/C vgnd vpwr scs8hd_diode_2
XFILLER_59_108 vpwr vgnd scs8hd_fill_2
XANTENNA__181__A chany_top_in[7] vgnd vpwr scs8hd_diode_2
XANTENNA_mem_right_ipin_3.LATCH_2_.latch_D data_in vgnd vpwr scs8hd_diode_2
XFILLER_4_82 vpwr vgnd scs8hd_fill_2
XANTENNA_mem_right_ipin_2.LATCH_2_.latch_SLEEPB _096_/Y vgnd vpwr scs8hd_diode_2
XANTENNA_mem_right_ipin_4.LATCH_0_.latch_D data_in vgnd vpwr scs8hd_diode_2
XANTENNA_mux_left_ipin_0.INVTX1_3_.scs8hd_inv_1_A chany_top_in[4] vgnd vpwr scs8hd_diode_2
XANTENNA__091__A _090_/Y vgnd vpwr scs8hd_diode_2
XFILLER_64_87 vgnd vpwr scs8hd_decap_6
XFILLER_64_32 vgnd vpwr scs8hd_decap_12
Xmux_right_ipin_4.mux_l1_in_1_.TGATE_0_.scs8hd_ebufn_2 mux_right_ipin_4.INVTX1_3_.scs8hd_inv_1/Y
+ mem_right_ipin_4.LATCH_0_.latch/Q mux_right_ipin_4.mux_l1_in_1_.TGATE_2_.scs8hd_ebufn_2/Z
+ vgnd vpwr scs8hd_ebufn_2
XANTENNA_mux_right_ipin_1.mux_l1_in_0_.TGATE_2_.scs8hd_ebufn_2_A mux_right_ipin_1.INVTX1_2_.scs8hd_inv_1/Y
+ vgnd vpwr scs8hd_diode_2
X_186_ chany_top_in[2] chany_bottom_out[2] vgnd vpwr scs8hd_buf_2
Xmux_right_ipin_3.INVTX1_3_.scs8hd_inv_1 chany_top_in[4] mux_right_ipin_3.INVTX1_3_.scs8hd_inv_1/Y
+ vgnd vpwr scs8hd_inv_1
XANTENNA__086__A _073_/X vgnd vpwr scs8hd_diode_2
XFILLER_34_68 vpwr vgnd scs8hd_fill_2
XFILLER_34_79 vpwr vgnd scs8hd_fill_2
XFILLER_50_89 vgnd vpwr scs8hd_decap_3
XFILLER_50_67 vpwr vgnd scs8hd_fill_2
XFILLER_1_3 vpwr vgnd scs8hd_fill_2
XANTENNA_mux_right_ipin_3.INVTX1_2_.scs8hd_inv_1_A chany_bottom_in[4] vgnd vpwr scs8hd_diode_2
X_169_ _166_/A _133_/A _169_/Y vgnd vpwr scs8hd_nor2_4
XFILLER_34_3 vgnd vpwr scs8hd_decap_12
XANTENNA_mux_right_ipin_7.INVTX1_3_.scs8hd_inv_1_A chany_top_in[4] vgnd vpwr scs8hd_diode_2
XFILLER_20_15 vgnd vpwr scs8hd_decap_4
XANTENNA_mem_left_ipin_0.LATCH_5_.latch_D data_in vgnd vpwr scs8hd_diode_2
XFILLER_43_136 vgnd vpwr scs8hd_decap_8
XANTENNA_mux_right_ipin_1.mux_l2_in_0_.TGATE_0_.scs8hd_ebufn_2_A mux_right_ipin_1.mux_l1_in_0_.TGATE_2_.scs8hd_ebufn_2/Z
+ vgnd vpwr scs8hd_diode_2
XFILLER_28_144 vpwr vgnd scs8hd_fill_2
XFILLER_61_66 vpwr vgnd scs8hd_fill_2
XANTENNA_mem_right_ipin_7.LATCH_4_.latch_D data_in vgnd vpwr scs8hd_diode_2
XFILLER_19_90 vgnd vpwr scs8hd_decap_4
XFILLER_19_111 vgnd vpwr scs8hd_fill_1
XANTENNA__157__C address[0] vgnd vpwr scs8hd_diode_2
XFILLER_40_117 vpwr vgnd scs8hd_fill_2
XFILLER_25_114 vpwr vgnd scs8hd_fill_2
XFILLER_40_128 vgnd vpwr scs8hd_decap_12
XFILLER_31_58 vgnd vpwr scs8hd_fill_1
XANTENNA_mem_right_ipin_0.LATCH_3_.latch_SLEEPB _074_/Y vgnd vpwr scs8hd_diode_2
XFILLER_56_44 vgnd vpwr scs8hd_decap_6
XPHY_120 vgnd vpwr scs8hd_decap_3
XPHY_142 vgnd vpwr scs8hd_tapvpwrvgnd_1
XPHY_131 vgnd vpwr scs8hd_tapvpwrvgnd_1
XPHY_153 vgnd vpwr scs8hd_tapvpwrvgnd_1
XPHY_164 vgnd vpwr scs8hd_tapvpwrvgnd_1
XPHY_175 vgnd vpwr scs8hd_tapvpwrvgnd_1
XFILLER_21_91 vpwr vgnd scs8hd_fill_2
XPHY_186 vgnd vpwr scs8hd_tapvpwrvgnd_1
XPHY_197 vgnd vpwr scs8hd_tapvpwrvgnd_1
XPHY_0 vgnd vpwr scs8hd_decap_3
XANTENNA__184__A chany_top_in[4] vgnd vpwr scs8hd_diode_2
XFILLER_22_139 vgnd vpwr scs8hd_decap_6
XANTENNA__078__B _076_/B vgnd vpwr scs8hd_diode_2
XANTENNA__094__A _071_/X vgnd vpwr scs8hd_diode_2
XFILLER_26_47 vgnd vpwr scs8hd_decap_4
XFILLER_12_27 vgnd vpwr scs8hd_decap_4
Xmux_left_ipin_1.mux_l1_in_0_.TGATE_0_.scs8hd_ebufn_2 mux_left_ipin_1.INVTX1_0_.scs8hd_inv_1/Y
+ _146_/A mux_left_ipin_1.mux_l2_in_0_.TGATE_0_.scs8hd_ebufn_2/A vgnd vpwr scs8hd_ebufn_2
XANTENNA__089__A _117_/A vgnd vpwr scs8hd_diode_2
XFILLER_53_56 vgnd vpwr scs8hd_decap_3
XFILLER_5_135 vgnd vpwr scs8hd_decap_8
XFILLER_5_102 vgnd vpwr scs8hd_decap_12
XFILLER_64_3 vgnd vpwr scs8hd_decap_12
XFILLER_4_50 vpwr vgnd scs8hd_fill_2
XANTENNA__091__B address[6] vgnd vpwr scs8hd_diode_2
XFILLER_48_67 vpwr vgnd scs8hd_fill_2
XFILLER_64_44 vgnd vpwr scs8hd_decap_12
X_185_ chany_top_in[3] chany_bottom_out[3] vgnd vpwr scs8hd_buf_2
XFILLER_64_145 vgnd vpwr scs8hd_fill_1
XANTENNA__192__A chany_bottom_in[5] vgnd vpwr scs8hd_diode_2
XFILLER_18_15 vgnd vpwr scs8hd_decap_4
XANTENNA_mux_right_ipin_5.INVTX1_0_.scs8hd_inv_1_A chany_bottom_in[2] vgnd vpwr scs8hd_diode_2
XANTENNA__086__B _083_/X vgnd vpwr scs8hd_diode_2
XFILLER_50_46 vgnd vpwr scs8hd_decap_12
XFILLER_34_58 vgnd vpwr scs8hd_fill_1
XFILLER_59_66 vpwr vgnd scs8hd_fill_2
XANTENNA_mux_right_ipin_6.mux_l2_in_0_.TGATE_2_.scs8hd_ebufn_2_TEB mem_right_ipin_6.LATCH_5_.latch/Q
+ vgnd vpwr scs8hd_diode_2
Xmux_right_ipin_7.mux_l2_in_0_.TGATE_0_.scs8hd_ebufn_2 mux_right_ipin_7.mux_l1_in_0_.TGATE_2_.scs8hd_ebufn_2/Z
+ mem_right_ipin_7.LATCH_3_.latch/Q mux_right_ipin_7.tap_buf4_0_.scs8hd_inv_1/A vgnd
+ vpwr scs8hd_ebufn_2
X_168_ _168_/A _133_/A vgnd vpwr scs8hd_buf_1
XFILLER_27_3 vgnd vpwr scs8hd_decap_12
X_099_ _090_/Y address[6] _066_/C _099_/X vgnd vpwr scs8hd_or3_4
XANTENNA__187__A chany_top_in[1] vgnd vpwr scs8hd_diode_2
XFILLER_37_145 vgnd vpwr scs8hd_fill_1
Xmux_right_ipin_1.INVTX1_3_.scs8hd_inv_1 chany_top_in[3] mux_right_ipin_1.INVTX1_3_.scs8hd_inv_1/Y
+ vgnd vpwr scs8hd_inv_1
XANTENNA_mem_left_ipin_1.LATCH_0_.latch_SLEEPB _144_/Y vgnd vpwr scs8hd_diode_2
XANTENNA_mem_right_ipin_7.LATCH_2_.latch_SLEEPB _140_/Y vgnd vpwr scs8hd_diode_2
Xmux_right_ipin_1.tap_buf4_0_.scs8hd_inv_1 mux_right_ipin_1.tap_buf4_0_.scs8hd_inv_1/A
+ left_grid_pin_2_ vgnd vpwr scs8hd_inv_1
XFILLER_45_57 vpwr vgnd scs8hd_fill_2
XFILLER_45_35 vpwr vgnd scs8hd_fill_2
XFILLER_45_24 vpwr vgnd scs8hd_fill_2
XANTENNA__097__A _116_/A vgnd vpwr scs8hd_diode_2
XANTENNA_mux_right_ipin_5.mux_l1_in_1_.TGATE_2_.scs8hd_ebufn_2_A mux_right_ipin_5.INVTX1_5_.scs8hd_inv_1/Y
+ vgnd vpwr scs8hd_diode_2
XANTENNA_mux_left_ipin_0.mux_l2_in_0_.TGATE_1_.scs8hd_ebufn_2_TEB mem_left_ipin_0.LATCH_4_.latch/Q
+ vgnd vpwr scs8hd_diode_2
XFILLER_19_123 vgnd vpwr scs8hd_decap_12
XANTENNA_mux_right_ipin_1.mux_l2_in_0_.TGATE_2_.scs8hd_ebufn_2_TEB mem_right_ipin_1.LATCH_5_.latch/Q
+ vgnd vpwr scs8hd_diode_2
XFILLER_15_16 vpwr vgnd scs8hd_fill_2
XFILLER_25_126 vgnd vpwr scs8hd_decap_8
XFILLER_25_137 vgnd vpwr scs8hd_decap_8
XFILLER_31_26 vpwr vgnd scs8hd_fill_2
Xmux_right_ipin_7.INVTX1_0_.scs8hd_inv_1 chany_bottom_in[0] mux_right_ipin_7.INVTX1_0_.scs8hd_inv_1/Y
+ vgnd vpwr scs8hd_inv_1
XPHY_121 vgnd vpwr scs8hd_decap_3
XPHY_110 vgnd vpwr scs8hd_decap_3
XPHY_143 vgnd vpwr scs8hd_tapvpwrvgnd_1