* NGSPICE file created from cby_1__1_.ext - technology: sky130A

* Black-box entry subcircuit for sky130_fd_sc_hd__mux2_1 abstract view
.subckt sky130_fd_sc_hd__mux2_1 A0 A1 S X VGND VNB VPB VPWR
.ends

* Black-box entry subcircuit for sky130_fd_sc_hd__decap_3 abstract view
.subckt sky130_fd_sc_hd__decap_3 VGND VNB VPB VPWR
.ends

* Black-box entry subcircuit for sky130_fd_sc_hd__decap_4 abstract view
.subckt sky130_fd_sc_hd__decap_4 VGND VNB VPB VPWR
.ends

* Black-box entry subcircuit for sky130_fd_sc_hd__buf_2 abstract view
.subckt sky130_fd_sc_hd__buf_2 A X VGND VNB VPB VPWR
.ends

* Black-box entry subcircuit for sky130_fd_sc_hd__dfxtp_1 abstract view
.subckt sky130_fd_sc_hd__dfxtp_1 D Q CLK VGND VNB VPB VPWR
.ends

* Black-box entry subcircuit for sky130_fd_sc_hd__clkbuf_1 abstract view
.subckt sky130_fd_sc_hd__clkbuf_1 A X VGND VNB VPB VPWR
.ends

* Black-box entry subcircuit for sky130_fd_sc_hd__fill_2 abstract view
.subckt sky130_fd_sc_hd__fill_2 VGND VNB VPB VPWR
.ends

* Black-box entry subcircuit for sky130_fd_sc_hd__decap_6 abstract view
.subckt sky130_fd_sc_hd__decap_6 VGND VNB VPB VPWR
.ends

* Black-box entry subcircuit for sky130_fd_sc_hd__buf_4 abstract view
.subckt sky130_fd_sc_hd__buf_4 A X VGND VNB VPB VPWR
.ends

* Black-box entry subcircuit for sky130_fd_sc_hd__decap_8 abstract view
.subckt sky130_fd_sc_hd__decap_8 VGND VNB VPB VPWR
.ends

* Black-box entry subcircuit for sky130_fd_sc_hd__fill_1 abstract view
.subckt sky130_fd_sc_hd__fill_1 VGND VNB VPB VPWR
.ends

* Black-box entry subcircuit for sky130_fd_sc_hd__conb_1 abstract view
.subckt sky130_fd_sc_hd__conb_1 HI LO VGND VNB VPB VPWR
.ends

* Black-box entry subcircuit for sky130_fd_sc_hd__tapvpwrvgnd_1 abstract view
.subckt sky130_fd_sc_hd__tapvpwrvgnd_1 VGND VPWR
.ends

* Black-box entry subcircuit for sky130_fd_sc_hd__clkbuf_16 abstract view
.subckt sky130_fd_sc_hd__clkbuf_16 A X VGND VNB VPB VPWR
.ends

.subckt cby_1__1_ ccff_head ccff_tail chany_bottom_in[0] chany_bottom_in[10] chany_bottom_in[11]
+ chany_bottom_in[12] chany_bottom_in[13] chany_bottom_in[14] chany_bottom_in[15]
+ chany_bottom_in[16] chany_bottom_in[17] chany_bottom_in[18] chany_bottom_in[19]
+ chany_bottom_in[1] chany_bottom_in[2] chany_bottom_in[3] chany_bottom_in[4] chany_bottom_in[5]
+ chany_bottom_in[6] chany_bottom_in[7] chany_bottom_in[8] chany_bottom_in[9] chany_bottom_out[0]
+ chany_bottom_out[10] chany_bottom_out[11] chany_bottom_out[12] chany_bottom_out[13]
+ chany_bottom_out[14] chany_bottom_out[15] chany_bottom_out[16] chany_bottom_out[17]
+ chany_bottom_out[18] chany_bottom_out[19] chany_bottom_out[1] chany_bottom_out[2]
+ chany_bottom_out[3] chany_bottom_out[4] chany_bottom_out[5] chany_bottom_out[6]
+ chany_bottom_out[7] chany_bottom_out[8] chany_bottom_out[9] chany_top_in[0] chany_top_in[10]
+ chany_top_in[11] chany_top_in[12] chany_top_in[13] chany_top_in[14] chany_top_in[15]
+ chany_top_in[16] chany_top_in[17] chany_top_in[18] chany_top_in[19] chany_top_in[1]
+ chany_top_in[2] chany_top_in[3] chany_top_in[4] chany_top_in[5] chany_top_in[6]
+ chany_top_in[7] chany_top_in[8] chany_top_in[9] chany_top_out[0] chany_top_out[10]
+ chany_top_out[11] chany_top_out[12] chany_top_out[13] chany_top_out[14] chany_top_out[15]
+ chany_top_out[16] chany_top_out[17] chany_top_out[18] chany_top_out[19] chany_top_out[1]
+ chany_top_out[2] chany_top_out[3] chany_top_out[4] chany_top_out[5] chany_top_out[6]
+ chany_top_out[7] chany_top_out[8] chany_top_out[9] left_grid_pin_16_ left_grid_pin_17_
+ left_grid_pin_18_ left_grid_pin_19_ left_grid_pin_20_ left_grid_pin_21_ left_grid_pin_22_
+ left_grid_pin_23_ left_grid_pin_24_ left_grid_pin_25_ left_grid_pin_26_ left_grid_pin_27_
+ left_grid_pin_28_ left_grid_pin_29_ left_grid_pin_30_ left_grid_pin_31_ prog_clk
+ VPWR VGND
Xmux_right_ipin_11.mux_l2_in_0_ mux_right_ipin_11.mux_l1_in_1_/X mux_right_ipin_11.mux_l1_in_0_/X
+ mux_right_ipin_11.mux_l2_in_2_/S mux_right_ipin_11.mux_l2_in_0_/X VGND VGND VPWR
+ VPWR sky130_fd_sc_hd__mux2_1
XFILLER_12_32 VGND VGND VPWR VPWR sky130_fd_sc_hd__decap_3
XFILLER_12_87 VGND VGND VPWR VPWR sky130_fd_sc_hd__decap_4
X_66_ chany_bottom_in[5] chany_top_out[5] VGND VGND VPWR VPWR sky130_fd_sc_hd__buf_2
Xmem_right_ipin_15.sky130_fd_sc_hd__dfxtp_1_1_ mux_right_ipin_15.mux_l1_in_0_/S mux_right_ipin_15.mux_l2_in_0_/S
+ mem_right_ipin_15.sky130_fd_sc_hd__dfxtp_1_1_/CLK VGND VGND VPWR VPWR sky130_fd_sc_hd__dfxtp_1
XFILLER_2_154 VGND VGND VPWR VPWR sky130_fd_sc_hd__decap_3
Xclkbuf_3_4_0_prog_clk clkbuf_3_5_0_prog_clk/A clkbuf_3_4_0_prog_clk/X VGND VGND VPWR
+ VPWR sky130_fd_sc_hd__clkbuf_1
Xmux_right_ipin_11.mux_l1_in_1_ chany_top_in[3] chany_bottom_in[3] mux_right_ipin_11.mux_l1_in_0_/S
+ mux_right_ipin_11.mux_l1_in_1_/X VGND VGND VPWR VPWR sky130_fd_sc_hd__mux2_1
X_49_ chany_top_in[2] chany_bottom_out[2] VGND VGND VPWR VPWR sky130_fd_sc_hd__buf_2
XFILLER_18_75 VGND VGND VPWR VPWR sky130_fd_sc_hd__decap_4
Xmem_right_ipin_12.sky130_fd_sc_hd__dfxtp_1_0_ mux_right_ipin_11.mux_l4_in_0_/S mux_right_ipin_12.mux_l1_in_1_/S
+ clkbuf_3_4_0_prog_clk/X VGND VGND VPWR VPWR sky130_fd_sc_hd__dfxtp_1
XFILLER_20_32 VGND VGND VPWR VPWR sky130_fd_sc_hd__decap_3
XFILLER_13_3 VGND VGND VPWR VPWR sky130_fd_sc_hd__fill_2
XFILLER_13_145 VGND VGND VPWR VPWR sky130_fd_sc_hd__decap_4
XFILLER_3_57 VGND VGND VPWR VPWR sky130_fd_sc_hd__decap_4
XFILLER_3_35 VGND VGND VPWR VPWR sky130_fd_sc_hd__decap_6
XFILLER_10_148 VGND VGND VPWR VPWR sky130_fd_sc_hd__decap_4
XFILLER_12_44 VGND VGND VPWR VPWR sky130_fd_sc_hd__decap_6
X_65_ chany_bottom_in[6] chany_top_out[6] VGND VGND VPWR VPWR sky130_fd_sc_hd__buf_2
Xmux_right_ipin_8.sky130_fd_sc_hd__buf_4_0_ mux_right_ipin_8.mux_l4_in_0_/X left_grid_pin_24_
+ VGND VGND VPWR VPWR sky130_fd_sc_hd__buf_4
Xmem_right_ipin_15.sky130_fd_sc_hd__dfxtp_1_0_ mux_right_ipin_14.mux_l4_in_0_/S mux_right_ipin_15.mux_l1_in_0_/S
+ mem_right_ipin_15.sky130_fd_sc_hd__dfxtp_1_0_/CLK VGND VGND VPWR VPWR sky130_fd_sc_hd__dfxtp_1
XFILLER_23_98 VGND VGND VPWR VPWR sky130_fd_sc_hd__decap_8
XFILLER_9_78 VGND VGND VPWR VPWR sky130_fd_sc_hd__decap_4
Xmux_right_ipin_11.mux_l1_in_0_ chany_top_in[1] chany_bottom_in[1] mux_right_ipin_11.mux_l1_in_0_/S
+ mux_right_ipin_11.mux_l1_in_0_/X VGND VGND VPWR VPWR sky130_fd_sc_hd__mux2_1
X_48_ chany_top_in[3] chany_bottom_out[3] VGND VGND VPWR VPWR sky130_fd_sc_hd__buf_2
XFILLER_20_88 VGND VGND VPWR VPWR sky130_fd_sc_hd__decap_4
XFILLER_16_154 VGND VGND VPWR VPWR sky130_fd_sc_hd__decap_3
XFILLER_22_146 VGND VGND VPWR VPWR sky130_fd_sc_hd__decap_6
XFILLER_6_109 VGND VGND VPWR VPWR sky130_fd_sc_hd__decap_4
X_64_ chany_bottom_in[7] chany_top_out[7] VGND VGND VPWR VPWR sky130_fd_sc_hd__buf_2
XFILLER_5_153 VGND VGND VPWR VPWR sky130_fd_sc_hd__decap_4
Xmux_right_ipin_3.mux_l2_in_3_ _28_/HI chany_top_in[19] mux_right_ipin_3.mux_l2_in_0_/S
+ mux_right_ipin_3.mux_l2_in_3_/X VGND VGND VPWR VPWR sky130_fd_sc_hd__mux2_1
XFILLER_23_77 VGND VGND VPWR VPWR sky130_fd_sc_hd__decap_4
XFILLER_23_66 VGND VGND VPWR VPWR sky130_fd_sc_hd__decap_6
XFILLER_23_22 VGND VGND VPWR VPWR sky130_fd_sc_hd__decap_4
X_47_ chany_top_in[4] chany_bottom_out[4] VGND VGND VPWR VPWR sky130_fd_sc_hd__buf_2
XFILLER_9_57 VGND VGND VPWR VPWR sky130_fd_sc_hd__decap_4
XFILLER_18_88 VGND VGND VPWR VPWR sky130_fd_sc_hd__decap_4
XFILLER_18_55 VGND VGND VPWR VPWR sky130_fd_sc_hd__decap_4
XFILLER_20_78 VGND VGND VPWR VPWR sky130_fd_sc_hd__fill_1
Xmux_right_ipin_3.mux_l4_in_0_ mux_right_ipin_3.mux_l3_in_1_/X mux_right_ipin_3.mux_l3_in_0_/X
+ mux_right_ipin_3.mux_l4_in_0_/S mux_right_ipin_3.mux_l4_in_0_/X VGND VGND VPWR VPWR
+ sky130_fd_sc_hd__mux2_1
XFILLER_15_78 VGND VGND VPWR VPWR sky130_fd_sc_hd__decap_4
Xclkbuf_2_1_0_prog_clk clkbuf_1_0_0_prog_clk/X clkbuf_2_1_0_prog_clk/X VGND VGND VPWR
+ VPWR sky130_fd_sc_hd__clkbuf_1
Xmux_right_ipin_8.mux_l2_in_3_ _17_/HI chany_top_in[18] mux_right_ipin_8.mux_l2_in_1_/S
+ mux_right_ipin_8.mux_l2_in_3_/X VGND VGND VPWR VPWR sky130_fd_sc_hd__mux2_1
Xmux_right_ipin_3.mux_l3_in_1_ mux_right_ipin_3.mux_l2_in_3_/X mux_right_ipin_3.mux_l2_in_2_/X
+ mux_right_ipin_3.mux_l3_in_0_/S mux_right_ipin_3.mux_l3_in_1_/X VGND VGND VPWR VPWR
+ sky130_fd_sc_hd__mux2_1
XFILLER_9_118 VGND VGND VPWR VPWR sky130_fd_sc_hd__decap_4
XFILLER_5_132 VGND VGND VPWR VPWR sky130_fd_sc_hd__decap_4
X_63_ chany_bottom_in[8] chany_top_out[8] VGND VGND VPWR VPWR sky130_fd_sc_hd__buf_2
Xmux_right_ipin_3.mux_l2_in_2_ chany_bottom_in[19] chany_top_in[13] mux_right_ipin_3.mux_l2_in_0_/S
+ mux_right_ipin_3.mux_l2_in_2_/X VGND VGND VPWR VPWR sky130_fd_sc_hd__mux2_1
XFILLER_2_102 VGND VGND VPWR VPWR sky130_fd_sc_hd__decap_4
Xmux_right_ipin_8.mux_l4_in_0_ mux_right_ipin_8.mux_l3_in_1_/X mux_right_ipin_8.mux_l3_in_0_/X
+ mux_right_ipin_8.mux_l4_in_0_/S mux_right_ipin_8.mux_l4_in_0_/X VGND VGND VPWR VPWR
+ sky130_fd_sc_hd__mux2_1
X_46_ chany_top_in[5] chany_bottom_out[5] VGND VGND VPWR VPWR sky130_fd_sc_hd__buf_2
Xmux_right_ipin_8.mux_l3_in_1_ mux_right_ipin_8.mux_l2_in_3_/X mux_right_ipin_8.mux_l2_in_2_/X
+ mux_right_ipin_8.mux_l3_in_0_/S mux_right_ipin_8.mux_l3_in_1_/X VGND VGND VPWR VPWR
+ sky130_fd_sc_hd__mux2_1
X_29_ _29_/HI _29_/LO VGND VGND VPWR VPWR sky130_fd_sc_hd__conb_1
Xmux_right_ipin_1.sky130_fd_sc_hd__buf_4_0_ mux_right_ipin_1.mux_l4_in_0_/X left_grid_pin_17_
+ VGND VGND VPWR VPWR sky130_fd_sc_hd__buf_4
Xclkbuf_3_3_0_prog_clk clkbuf_2_1_0_prog_clk/X clkbuf_3_3_0_prog_clk/X VGND VGND VPWR
+ VPWR sky130_fd_sc_hd__clkbuf_1
XFILLER_19_153 VGND VGND VPWR VPWR sky130_fd_sc_hd__decap_4
XFILLER_20_7 VGND VGND VPWR VPWR sky130_fd_sc_hd__decap_4
XFILLER_15_57 VGND VGND VPWR VPWR sky130_fd_sc_hd__decap_4
XFILLER_11_3 VGND VGND VPWR VPWR sky130_fd_sc_hd__decap_4
Xmux_right_ipin_8.mux_l2_in_2_ chany_bottom_in[18] chany_top_in[12] mux_right_ipin_8.mux_l2_in_1_/S
+ mux_right_ipin_8.mux_l2_in_2_/X VGND VGND VPWR VPWR sky130_fd_sc_hd__mux2_1
Xmux_right_ipin_3.mux_l3_in_0_ mux_right_ipin_3.mux_l2_in_1_/X mux_right_ipin_3.mux_l2_in_0_/X
+ mux_right_ipin_3.mux_l3_in_0_/S mux_right_ipin_3.mux_l3_in_0_/X VGND VGND VPWR VPWR
+ sky130_fd_sc_hd__mux2_1
XFILLER_13_104 VGND VGND VPWR VPWR sky130_fd_sc_hd__decap_4
XFILLER_8_152 VGND VGND VPWR VPWR sky130_fd_sc_hd__fill_1
XFILLER_5_111 VGND VGND VPWR VPWR sky130_fd_sc_hd__decap_4
X_62_ chany_bottom_in[9] chany_top_out[9] VGND VGND VPWR VPWR sky130_fd_sc_hd__buf_2
Xmux_right_ipin_3.mux_l2_in_1_ chany_bottom_in[13] mux_right_ipin_3.mux_l1_in_2_/X
+ mux_right_ipin_3.mux_l2_in_0_/S mux_right_ipin_3.mux_l2_in_1_/X VGND VGND VPWR VPWR
+ sky130_fd_sc_hd__mux2_1
XFILLER_23_57 VGND VGND VPWR VPWR sky130_fd_sc_hd__decap_4
XFILLER_9_37 VGND VGND VPWR VPWR sky130_fd_sc_hd__decap_4
XFILLER_18_35 VGND VGND VPWR VPWR sky130_fd_sc_hd__decap_4
X_45_ chany_top_in[6] chany_bottom_out[6] VGND VGND VPWR VPWR sky130_fd_sc_hd__buf_2
Xmux_right_ipin_12.mux_l2_in_3_ _23_/HI chany_top_in[16] mux_right_ipin_12.mux_l2_in_3_/S
+ mux_right_ipin_12.mux_l2_in_3_/X VGND VGND VPWR VPWR sky130_fd_sc_hd__mux2_1
Xmux_right_ipin_3.mux_l1_in_2_ chany_top_in[7] chany_bottom_in[7] mux_right_ipin_3.mux_l1_in_0_/S
+ mux_right_ipin_3.mux_l1_in_2_/X VGND VGND VPWR VPWR sky130_fd_sc_hd__mux2_1
X_28_ _28_/HI _28_/LO VGND VGND VPWR VPWR sky130_fd_sc_hd__conb_1
XFILLER_1_60 VGND VGND VPWR VPWR sky130_fd_sc_hd__fill_1
Xmux_right_ipin_8.mux_l3_in_0_ mux_right_ipin_8.mux_l2_in_1_/X mux_right_ipin_8.mux_l2_in_0_/X
+ mux_right_ipin_8.mux_l3_in_0_/S mux_right_ipin_8.mux_l3_in_0_/X VGND VGND VPWR VPWR
+ sky130_fd_sc_hd__mux2_1
XFILLER_20_58 VGND VGND VPWR VPWR sky130_fd_sc_hd__decap_4
XFILLER_19_132 VGND VGND VPWR VPWR sky130_fd_sc_hd__decap_4
XFILLER_6_27 VGND VGND VPWR VPWR sky130_fd_sc_hd__decap_4
XFILLER_16_102 VGND VGND VPWR VPWR sky130_fd_sc_hd__decap_4
Xmux_right_ipin_8.mux_l2_in_1_ chany_bottom_in[12] mux_right_ipin_8.mux_l1_in_2_/X
+ mux_right_ipin_8.mux_l2_in_1_/S mux_right_ipin_8.mux_l2_in_1_/X VGND VGND VPWR VPWR
+ sky130_fd_sc_hd__mux2_1
XFILLER_22_138 VGND VGND VPWR VPWR sky130_fd_sc_hd__decap_4
Xmux_right_ipin_12.mux_l4_in_0_ mux_right_ipin_12.mux_l3_in_1_/X mux_right_ipin_12.mux_l3_in_0_/X
+ mux_right_ipin_12.mux_l4_in_0_/S mux_right_ipin_12.mux_l4_in_0_/X VGND VGND VPWR
+ VPWR sky130_fd_sc_hd__mux2_1
Xmux_right_ipin_8.mux_l1_in_2_ chany_top_in[8] chany_bottom_in[8] mux_right_ipin_8.mux_l1_in_0_/S
+ mux_right_ipin_8.mux_l1_in_2_/X VGND VGND VPWR VPWR sky130_fd_sc_hd__mux2_1
Xmux_right_ipin_12.mux_l3_in_1_ mux_right_ipin_12.mux_l2_in_3_/X mux_right_ipin_12.mux_l2_in_2_/X
+ mux_right_ipin_12.mux_l3_in_1_/S mux_right_ipin_12.mux_l3_in_1_/X VGND VGND VPWR
+ VPWR sky130_fd_sc_hd__mux2_1
X_61_ chany_bottom_in[10] chany_top_out[10] VGND VGND VPWR VPWR sky130_fd_sc_hd__buf_2
XFILLER_5_101 VGND VGND VPWR VPWR sky130_fd_sc_hd__fill_1
XFILLER_5_145 VGND VGND VPWR VPWR sky130_fd_sc_hd__decap_4
Xmux_right_ipin_3.mux_l2_in_0_ mux_right_ipin_3.mux_l1_in_1_/X mux_right_ipin_3.mux_l1_in_0_/X
+ mux_right_ipin_3.mux_l2_in_0_/S mux_right_ipin_3.mux_l2_in_0_/X VGND VGND VPWR VPWR
+ sky130_fd_sc_hd__mux2_1
XFILLER_23_36 VGND VGND VPWR VPWR sky130_fd_sc_hd__decap_4
XFILLER_2_115 VGND VGND VPWR VPWR sky130_fd_sc_hd__decap_4
XFILLER_13_91 VGND VGND VPWR VPWR sky130_fd_sc_hd__decap_4
X_44_ chany_top_in[7] chany_bottom_out[7] VGND VGND VPWR VPWR sky130_fd_sc_hd__buf_2
XFILLER_18_14 VGND VGND VPWR VPWR sky130_fd_sc_hd__decap_4
Xmux_right_ipin_12.mux_l2_in_2_ chany_bottom_in[16] chany_top_in[12] mux_right_ipin_12.mux_l2_in_3_/S
+ mux_right_ipin_12.mux_l2_in_2_/X VGND VGND VPWR VPWR sky130_fd_sc_hd__mux2_1
Xmux_right_ipin_3.mux_l1_in_1_ chany_top_in[3] chany_bottom_in[3] mux_right_ipin_3.mux_l1_in_0_/S
+ mux_right_ipin_3.mux_l1_in_1_/X VGND VGND VPWR VPWR sky130_fd_sc_hd__mux2_1
X_27_ _27_/HI _27_/LO VGND VGND VPWR VPWR sky130_fd_sc_hd__conb_1
XFILLER_1_94 VGND VGND VPWR VPWR sky130_fd_sc_hd__fill_1
XFILLER_15_37 VGND VGND VPWR VPWR sky130_fd_sc_hd__decap_4
Xmux_right_ipin_8.mux_l2_in_0_ mux_right_ipin_8.mux_l1_in_1_/X mux_right_ipin_8.mux_l1_in_0_/X
+ mux_right_ipin_8.mux_l2_in_1_/S mux_right_ipin_8.mux_l2_in_0_/X VGND VGND VPWR VPWR
+ sky130_fd_sc_hd__mux2_1
XFILLER_22_128 VGND VGND VPWR VPWR sky130_fd_sc_hd__decap_4
XFILLER_22_117 VGND VGND VPWR VPWR sky130_fd_sc_hd__fill_2
XPHY_0 VGND VGND VPWR VPWR sky130_fd_sc_hd__decap_3
XFILLER_13_117 VGND VGND VPWR VPWR sky130_fd_sc_hd__decap_4
XFILLER_16_91 VGND VGND VPWR VPWR sky130_fd_sc_hd__fill_1
XFILLER_8_154 VGND VGND VPWR VPWR sky130_fd_sc_hd__decap_3
Xmux_right_ipin_8.mux_l1_in_1_ chany_top_in[2] chany_bottom_in[2] mux_right_ipin_8.mux_l1_in_0_/S
+ mux_right_ipin_8.mux_l1_in_1_/X VGND VGND VPWR VPWR sky130_fd_sc_hd__mux2_1
XFILLER_10_109 VGND VGND VPWR VPWR sky130_fd_sc_hd__decap_4
XFILLER_12_27 VGND VGND VPWR VPWR sky130_fd_sc_hd__decap_4
X_60_ chany_bottom_in[11] chany_top_out[11] VGND VGND VPWR VPWR sky130_fd_sc_hd__buf_2
Xmux_right_ipin_12.mux_l3_in_0_ mux_right_ipin_12.mux_l2_in_1_/X mux_right_ipin_12.mux_l2_in_0_/X
+ mux_right_ipin_12.mux_l3_in_1_/S mux_right_ipin_12.mux_l3_in_0_/X VGND VGND VPWR
+ VPWR sky130_fd_sc_hd__mux2_1
Xclkbuf_2_0_0_prog_clk clkbuf_1_0_0_prog_clk/X clkbuf_3_1_0_prog_clk/A VGND VGND VPWR
+ VPWR sky130_fd_sc_hd__clkbuf_1
XFILLER_23_26 VGND VGND VPWR VPWR sky130_fd_sc_hd__fill_1
X_43_ chany_top_in[8] chany_bottom_out[8] VGND VGND VPWR VPWR sky130_fd_sc_hd__buf_2
Xmux_right_ipin_12.mux_l2_in_1_ chany_bottom_in[12] mux_right_ipin_12.mux_l1_in_2_/X
+ mux_right_ipin_12.mux_l2_in_3_/S mux_right_ipin_12.mux_l2_in_1_/X VGND VGND VPWR
+ VPWR sky130_fd_sc_hd__mux2_1
Xmux_right_ipin_3.mux_l1_in_0_ chany_top_in[1] chany_bottom_in[1] mux_right_ipin_3.mux_l1_in_0_/S
+ mux_right_ipin_3.mux_l1_in_0_/X VGND VGND VPWR VPWR sky130_fd_sc_hd__mux2_1
X_26_ _26_/HI _26_/LO VGND VGND VPWR VPWR sky130_fd_sc_hd__conb_1
XFILLER_20_38 VGND VGND VPWR VPWR sky130_fd_sc_hd__decap_4
XFILLER_20_27 VGND VGND VPWR VPWR sky130_fd_sc_hd__decap_4
XFILLER_19_145 VGND VGND VPWR VPWR sky130_fd_sc_hd__decap_4
XFILLER_19_101 VGND VGND VPWR VPWR sky130_fd_sc_hd__decap_4
Xmux_right_ipin_12.mux_l1_in_2_ chany_top_in[6] chany_bottom_in[6] mux_right_ipin_12.mux_l1_in_1_/S
+ mux_right_ipin_12.mux_l1_in_2_/X VGND VGND VPWR VPWR sky130_fd_sc_hd__mux2_1
XPHY_110 VGND VPWR sky130_fd_sc_hd__tapvpwrvgnd_1
XFILLER_16_115 VGND VGND VPWR VPWR sky130_fd_sc_hd__decap_4
XPHY_1 VGND VGND VPWR VPWR sky130_fd_sc_hd__decap_3
XFILLER_7_72 VGND VGND VPWR VPWR sky130_fd_sc_hd__decap_3
Xclkbuf_3_2_0_prog_clk clkbuf_2_1_0_prog_clk/X clkbuf_3_2_0_prog_clk/X VGND VGND VPWR
+ VPWR sky130_fd_sc_hd__clkbuf_1
XFILLER_7_94 VGND VGND VPWR VPWR sky130_fd_sc_hd__fill_1
Xmem_right_ipin_0.sky130_fd_sc_hd__dfxtp_1_3_ mux_right_ipin_0.mux_l3_in_0_/S mux_right_ipin_0.mux_l4_in_0_/S
+ clkbuf_3_0_0_prog_clk/X VGND VGND VPWR VPWR sky130_fd_sc_hd__dfxtp_1
XFILLER_8_122 VGND VGND VPWR VPWR sky130_fd_sc_hd__decap_4
Xmux_right_ipin_8.mux_l1_in_0_ chany_top_in[0] chany_bottom_in[0] mux_right_ipin_8.mux_l1_in_0_/S
+ mux_right_ipin_8.mux_l1_in_0_/X VGND VGND VPWR VPWR sky130_fd_sc_hd__mux2_1
XFILLER_23_49 VGND VGND VPWR VPWR sky130_fd_sc_hd__decap_4
XFILLER_23_16 VGND VGND VPWR VPWR sky130_fd_sc_hd__fill_2
X_42_ chany_top_in[9] chany_bottom_out[9] VGND VGND VPWR VPWR sky130_fd_sc_hd__buf_2
Xmux_right_ipin_12.mux_l2_in_0_ mux_right_ipin_12.mux_l1_in_1_/X mux_right_ipin_12.mux_l1_in_0_/X
+ mux_right_ipin_12.mux_l2_in_3_/S mux_right_ipin_12.mux_l2_in_0_/X VGND VGND VPWR
+ VPWR sky130_fd_sc_hd__mux2_1
XFILLER_18_27 VGND VGND VPWR VPWR sky130_fd_sc_hd__decap_4
Xmux_right_ipin_12.sky130_fd_sc_hd__buf_4_0_ mux_right_ipin_12.mux_l4_in_0_/X left_grid_pin_28_
+ VGND VGND VPWR VPWR sky130_fd_sc_hd__buf_4
X_25_ _25_/HI _25_/LO VGND VGND VPWR VPWR sky130_fd_sc_hd__conb_1
Xmux_right_ipin_12.mux_l1_in_1_ chany_top_in[2] chany_bottom_in[2] mux_right_ipin_12.mux_l1_in_1_/S
+ mux_right_ipin_12.mux_l1_in_1_/X VGND VGND VPWR VPWR sky130_fd_sc_hd__mux2_1
XFILLER_19_81 VGND VGND VPWR VPWR sky130_fd_sc_hd__decap_4
Xmem_right_ipin_3.sky130_fd_sc_hd__dfxtp_1_3_ mux_right_ipin_3.mux_l3_in_0_/S mux_right_ipin_3.mux_l4_in_0_/S
+ clkbuf_3_2_0_prog_clk/X VGND VGND VPWR VPWR sky130_fd_sc_hd__dfxtp_1
Xmux_right_ipin_4.sky130_fd_sc_hd__buf_4_0_ mux_right_ipin_4.mux_l4_in_0_/X left_grid_pin_20_
+ VGND VGND VPWR VPWR sky130_fd_sc_hd__buf_4
XPHY_100 VGND VPWR sky130_fd_sc_hd__tapvpwrvgnd_1
XFILLER_16_149 VGND VGND VPWR VPWR sky130_fd_sc_hd__decap_4
XPHY_111 VGND VPWR sky130_fd_sc_hd__tapvpwrvgnd_1
XPHY_2 VGND VGND VPWR VPWR sky130_fd_sc_hd__decap_3
XFILLER_11_7 VGND VGND VPWR VPWR sky130_fd_sc_hd__fill_1
XFILLER_7_62 VGND VGND VPWR VPWR sky130_fd_sc_hd__fill_1
Xmem_right_ipin_0.sky130_fd_sc_hd__dfxtp_1_2_ mux_right_ipin_0.mux_l2_in_3_/S mux_right_ipin_0.mux_l3_in_0_/S
+ clkbuf_3_0_0_prog_clk/X VGND VGND VPWR VPWR sky130_fd_sc_hd__dfxtp_1
XFILLER_12_152 VGND VGND VPWR VPWR sky130_fd_sc_hd__fill_1
X_41_ chany_top_in[10] chany_bottom_out[10] VGND VGND VPWR VPWR sky130_fd_sc_hd__buf_2
Xmem_right_ipin_6.sky130_fd_sc_hd__dfxtp_1_3_ mux_right_ipin_6.mux_l3_in_0_/S mux_right_ipin_6.mux_l4_in_0_/S
+ clkbuf_3_1_0_prog_clk/X VGND VGND VPWR VPWR sky130_fd_sc_hd__dfxtp_1
XFILLER_24_60 VGND VGND VPWR VPWR sky130_fd_sc_hd__fill_2
X_24_ _24_/HI _24_/LO VGND VGND VPWR VPWR sky130_fd_sc_hd__conb_1
XFILLER_19_114 VGND VGND VPWR VPWR sky130_fd_sc_hd__decap_8
Xmem_right_ipin_3.sky130_fd_sc_hd__dfxtp_1_2_ mux_right_ipin_3.mux_l2_in_0_/S mux_right_ipin_3.mux_l3_in_0_/S
+ clkbuf_3_3_0_prog_clk/X VGND VGND VPWR VPWR sky130_fd_sc_hd__dfxtp_1
Xmux_right_ipin_12.mux_l1_in_0_ chany_top_in[0] chany_bottom_in[0] mux_right_ipin_12.mux_l1_in_1_/S
+ mux_right_ipin_12.mux_l1_in_0_/X VGND VGND VPWR VPWR sky130_fd_sc_hd__mux2_1
XPHY_112 VGND VPWR sky130_fd_sc_hd__tapvpwrvgnd_1
XPHY_101 VGND VPWR sky130_fd_sc_hd__tapvpwrvgnd_1
XFILLER_16_128 VGND VGND VPWR VPWR sky130_fd_sc_hd__decap_4
XFILLER_22_109 VGND VGND VPWR VPWR sky130_fd_sc_hd__decap_8
XPHY_3 VGND VGND VPWR VPWR sky130_fd_sc_hd__decap_3
XFILLER_21_153 VGND VGND VPWR VPWR sky130_fd_sc_hd__decap_4
Xmem_right_ipin_0.sky130_fd_sc_hd__dfxtp_1_1_ mux_right_ipin_0.mux_l1_in_2_/S mux_right_ipin_0.mux_l2_in_3_/S
+ clkbuf_3_2_0_prog_clk/X VGND VGND VPWR VPWR sky130_fd_sc_hd__dfxtp_1
XFILLER_8_135 VGND VGND VPWR VPWR sky130_fd_sc_hd__decap_4
Xmem_right_ipin_9.sky130_fd_sc_hd__dfxtp_1_3_ mux_right_ipin_9.mux_l3_in_1_/S mux_right_ipin_9.mux_l4_in_0_/S
+ clkbuf_3_4_0_prog_clk/X VGND VGND VPWR VPWR sky130_fd_sc_hd__dfxtp_1
Xmem_right_ipin_11.sky130_fd_sc_hd__dfxtp_1_3_ mux_right_ipin_11.mux_l3_in_1_/S mux_right_ipin_11.mux_l4_in_0_/S
+ clkbuf_3_5_0_prog_clk/X VGND VGND VPWR VPWR sky130_fd_sc_hd__dfxtp_1
X_40_ chany_top_in[11] chany_bottom_out[11] VGND VGND VPWR VPWR sky130_fd_sc_hd__buf_2
Xmem_right_ipin_6.sky130_fd_sc_hd__dfxtp_1_2_ mux_right_ipin_6.mux_l2_in_0_/S mux_right_ipin_6.mux_l3_in_0_/S
+ clkbuf_3_3_0_prog_clk/X VGND VGND VPWR VPWR sky130_fd_sc_hd__dfxtp_1
XFILLER_24_72 VGND VGND VPWR VPWR sky130_fd_sc_hd__decap_4
X_23_ _23_/HI _23_/LO VGND VGND VPWR VPWR sky130_fd_sc_hd__conb_1
XFILLER_1_87 VGND VGND VPWR VPWR sky130_fd_sc_hd__decap_4
Xmux_right_ipin_4.mux_l2_in_3_ _29_/HI chany_top_in[14] mux_right_ipin_4.mux_l2_in_3_/S
+ mux_right_ipin_4.mux_l2_in_3_/X VGND VGND VPWR VPWR sky130_fd_sc_hd__mux2_1
XFILLER_19_94 VGND VGND VPWR VPWR sky130_fd_sc_hd__decap_4
Xmem_right_ipin_3.sky130_fd_sc_hd__dfxtp_1_1_ mux_right_ipin_3.mux_l1_in_0_/S mux_right_ipin_3.mux_l2_in_0_/S
+ clkbuf_3_2_0_prog_clk/X VGND VGND VPWR VPWR sky130_fd_sc_hd__dfxtp_1
XFILLER_10_30 VGND VGND VPWR VPWR sky130_fd_sc_hd__fill_1
XFILLER_10_41 VGND VGND VPWR VPWR sky130_fd_sc_hd__decap_4
XFILLER_10_85 VGND VGND VPWR VPWR sky130_fd_sc_hd__decap_4
XPHY_113 VGND VPWR sky130_fd_sc_hd__tapvpwrvgnd_1
XFILLER_21_62 VGND VGND VPWR VPWR sky130_fd_sc_hd__decap_4
XPHY_102 VGND VPWR sky130_fd_sc_hd__tapvpwrvgnd_1
XPHY_4 VGND VGND VPWR VPWR sky130_fd_sc_hd__decap_3
XFILLER_21_132 VGND VGND VPWR VPWR sky130_fd_sc_hd__decap_4
Xmux_right_ipin_4.mux_l4_in_0_ mux_right_ipin_4.mux_l3_in_1_/X mux_right_ipin_4.mux_l3_in_0_/X
+ mux_right_ipin_4.mux_l4_in_0_/S mux_right_ipin_4.mux_l4_in_0_/X VGND VGND VPWR VPWR
+ sky130_fd_sc_hd__mux2_1
Xmem_right_ipin_0.sky130_fd_sc_hd__dfxtp_1_0_ ccff_head mux_right_ipin_0.mux_l1_in_2_/S
+ clkbuf_3_0_0_prog_clk/X VGND VGND VPWR VPWR sky130_fd_sc_hd__dfxtp_1
XFILLER_16_84 VGND VGND VPWR VPWR sky130_fd_sc_hd__decap_4
Xmem_right_ipin_14.sky130_fd_sc_hd__dfxtp_1_3_ mux_right_ipin_14.mux_l3_in_0_/S mux_right_ipin_14.mux_l4_in_0_/S
+ clkbuf_3_0_0_prog_clk/X VGND VGND VPWR VPWR sky130_fd_sc_hd__dfxtp_1
XFILLER_12_154 VGND VGND VPWR VPWR sky130_fd_sc_hd__decap_3
Xmem_right_ipin_9.sky130_fd_sc_hd__dfxtp_1_2_ mux_right_ipin_9.mux_l2_in_3_/S mux_right_ipin_9.mux_l3_in_1_/S
+ clkbuf_3_4_0_prog_clk/X VGND VGND VPWR VPWR sky130_fd_sc_hd__dfxtp_1
Xmux_right_ipin_9.mux_l2_in_3_ _18_/HI chany_top_in[13] mux_right_ipin_9.mux_l2_in_3_/S
+ mux_right_ipin_9.mux_l2_in_3_/X VGND VGND VPWR VPWR sky130_fd_sc_hd__mux2_1
Xclkbuf_3_1_0_prog_clk clkbuf_3_1_0_prog_clk/A clkbuf_3_1_0_prog_clk/X VGND VGND VPWR
+ VPWR sky130_fd_sc_hd__clkbuf_1
Xmux_right_ipin_4.mux_l3_in_1_ mux_right_ipin_4.mux_l2_in_3_/X mux_right_ipin_4.mux_l2_in_2_/X
+ mux_right_ipin_4.mux_l3_in_1_/S mux_right_ipin_4.mux_l3_in_1_/X VGND VGND VPWR VPWR
+ sky130_fd_sc_hd__mux2_1
Xmem_right_ipin_11.sky130_fd_sc_hd__dfxtp_1_2_ mux_right_ipin_11.mux_l2_in_2_/S mux_right_ipin_11.mux_l3_in_1_/S
+ mem_right_ipin_11.sky130_fd_sc_hd__dfxtp_1_2_/CLK VGND VGND VPWR VPWR sky130_fd_sc_hd__dfxtp_1
Xmem_right_ipin_6.sky130_fd_sc_hd__dfxtp_1_1_ mux_right_ipin_6.mux_l1_in_0_/S mux_right_ipin_6.mux_l2_in_0_/S
+ clkbuf_3_3_0_prog_clk/X VGND VGND VPWR VPWR sky130_fd_sc_hd__dfxtp_1
X_22_ _22_/HI _22_/LO VGND VGND VPWR VPWR sky130_fd_sc_hd__conb_1
Xmux_right_ipin_4.mux_l2_in_2_ chany_bottom_in[14] chany_top_in[8] mux_right_ipin_4.mux_l2_in_3_/S
+ mux_right_ipin_4.mux_l2_in_2_/X VGND VGND VPWR VPWR sky130_fd_sc_hd__mux2_1
Xmux_right_ipin_9.mux_l4_in_0_ mux_right_ipin_9.mux_l3_in_1_/X mux_right_ipin_9.mux_l3_in_0_/X
+ mux_right_ipin_9.mux_l4_in_0_/S mux_right_ipin_9.mux_l4_in_0_/X VGND VGND VPWR VPWR
+ sky130_fd_sc_hd__mux2_1
Xmem_right_ipin_3.sky130_fd_sc_hd__dfxtp_1_0_ mux_right_ipin_2.mux_l4_in_0_/S mux_right_ipin_3.mux_l1_in_0_/S
+ clkbuf_3_2_0_prog_clk/X VGND VGND VPWR VPWR sky130_fd_sc_hd__dfxtp_1
XFILLER_18_3 VGND VGND VPWR VPWR sky130_fd_sc_hd__fill_2
XPHY_114 VGND VPWR sky130_fd_sc_hd__tapvpwrvgnd_1
XFILLER_21_96 VGND VGND VPWR VPWR sky130_fd_sc_hd__decap_4
XPHY_103 VGND VPWR sky130_fd_sc_hd__tapvpwrvgnd_1
Xmux_right_ipin_9.mux_l3_in_1_ mux_right_ipin_9.mux_l2_in_3_/X mux_right_ipin_9.mux_l2_in_2_/X
+ mux_right_ipin_9.mux_l3_in_1_/S mux_right_ipin_9.mux_l3_in_1_/X VGND VGND VPWR VPWR
+ sky130_fd_sc_hd__mux2_1
XFILLER_15_152 VGND VGND VPWR VPWR sky130_fd_sc_hd__decap_4
XPHY_5 VGND VGND VPWR VPWR sky130_fd_sc_hd__decap_3
XFILLER_7_98 VGND VGND VPWR VPWR sky130_fd_sc_hd__decap_4
Xmem_right_ipin_14.sky130_fd_sc_hd__dfxtp_1_2_ mux_right_ipin_14.mux_l2_in_3_/S mux_right_ipin_14.mux_l3_in_0_/S
+ clkbuf_3_7_0_prog_clk/X VGND VGND VPWR VPWR sky130_fd_sc_hd__dfxtp_1
XFILLER_8_148 VGND VGND VPWR VPWR sky130_fd_sc_hd__decap_4
Xmem_right_ipin_9.sky130_fd_sc_hd__dfxtp_1_1_ mux_right_ipin_9.mux_l1_in_0_/S mux_right_ipin_9.mux_l2_in_3_/S
+ clkbuf_3_6_0_prog_clk/X VGND VGND VPWR VPWR sky130_fd_sc_hd__dfxtp_1
Xmux_right_ipin_9.mux_l2_in_2_ chany_bottom_in[13] chany_top_in[5] mux_right_ipin_9.mux_l2_in_3_/S
+ mux_right_ipin_9.mux_l2_in_2_/X VGND VGND VPWR VPWR sky130_fd_sc_hd__mux2_1
XFILLER_5_118 VGND VGND VPWR VPWR sky130_fd_sc_hd__decap_4
Xmux_right_ipin_4.mux_l3_in_0_ mux_right_ipin_4.mux_l2_in_1_/X mux_right_ipin_4.mux_l2_in_0_/X
+ mux_right_ipin_4.mux_l3_in_1_/S mux_right_ipin_4.mux_l3_in_0_/X VGND VGND VPWR VPWR
+ sky130_fd_sc_hd__mux2_1
XFILLER_4_88 VGND VGND VPWR VPWR sky130_fd_sc_hd__decap_4
Xmem_right_ipin_11.sky130_fd_sc_hd__dfxtp_1_1_ mux_right_ipin_11.mux_l1_in_0_/S mux_right_ipin_11.mux_l2_in_2_/S
+ clkbuf_3_6_0_prog_clk/X VGND VGND VPWR VPWR sky130_fd_sc_hd__dfxtp_1
XFILLER_1_154 VGND VGND VPWR VPWR sky130_fd_sc_hd__decap_3
XFILLER_1_132 VGND VGND VPWR VPWR sky130_fd_sc_hd__decap_4
XFILLER_1_121 VGND VGND VPWR VPWR sky130_fd_sc_hd__fill_1
Xmem_right_ipin_6.sky130_fd_sc_hd__dfxtp_1_0_ mux_right_ipin_5.mux_l4_in_0_/S mux_right_ipin_6.mux_l1_in_0_/S
+ clkbuf_3_1_0_prog_clk/X VGND VGND VPWR VPWR sky130_fd_sc_hd__dfxtp_1
XFILLER_24_85 VGND VGND VPWR VPWR sky130_fd_sc_hd__decap_8
XFILLER_24_52 VGND VGND VPWR VPWR sky130_fd_sc_hd__decap_8
X_21_ _21_/HI _21_/LO VGND VGND VPWR VPWR sky130_fd_sc_hd__conb_1
Xmux_right_ipin_4.mux_l2_in_1_ chany_bottom_in[8] mux_right_ipin_4.mux_l1_in_2_/X
+ mux_right_ipin_4.mux_l2_in_3_/S mux_right_ipin_4.mux_l2_in_1_/X VGND VGND VPWR VPWR
+ sky130_fd_sc_hd__mux2_1
XFILLER_10_65 VGND VGND VPWR VPWR sky130_fd_sc_hd__decap_4
Xmux_right_ipin_15.sky130_fd_sc_hd__buf_4_0_ mux_right_ipin_15.mux_l4_in_0_/X left_grid_pin_31_
+ VGND VGND VPWR VPWR sky130_fd_sc_hd__buf_4
XFILLER_24_131 VGND VGND VPWR VPWR sky130_fd_sc_hd__decap_4
XPHY_115 VGND VPWR sky130_fd_sc_hd__tapvpwrvgnd_1
XPHY_104 VGND VPWR sky130_fd_sc_hd__tapvpwrvgnd_1
Xmux_right_ipin_4.mux_l1_in_2_ chany_top_in[4] chany_bottom_in[4] mux_right_ipin_4.mux_l1_in_0_/S
+ mux_right_ipin_4.mux_l1_in_2_/X VGND VGND VPWR VPWR sky130_fd_sc_hd__mux2_1
Xmux_right_ipin_7.sky130_fd_sc_hd__buf_4_0_ mux_right_ipin_7.mux_l4_in_0_/X left_grid_pin_23_
+ VGND VGND VPWR VPWR sky130_fd_sc_hd__buf_4
Xmux_right_ipin_13.mux_l2_in_3_ _24_/HI chany_top_in[17] mux_right_ipin_13.mux_l2_in_2_/S
+ mux_right_ipin_13.mux_l2_in_3_/X VGND VGND VPWR VPWR sky130_fd_sc_hd__mux2_1
XFILLER_21_42 VGND VGND VPWR VPWR sky130_fd_sc_hd__decap_4
XFILLER_15_142 VGND VGND VPWR VPWR sky130_fd_sc_hd__decap_4
Xmux_right_ipin_9.mux_l3_in_0_ mux_right_ipin_9.mux_l2_in_1_/X mux_right_ipin_9.mux_l2_in_0_/X
+ mux_right_ipin_9.mux_l3_in_1_/S mux_right_ipin_9.mux_l3_in_0_/X VGND VGND VPWR VPWR
+ sky130_fd_sc_hd__mux2_1
XPHY_6 VGND VGND VPWR VPWR sky130_fd_sc_hd__decap_3
XFILLER_21_145 VGND VGND VPWR VPWR sky130_fd_sc_hd__decap_4
Xmem_right_ipin_14.sky130_fd_sc_hd__dfxtp_1_1_ mux_right_ipin_14.mux_l1_in_0_/S mux_right_ipin_14.mux_l2_in_3_/S
+ clkbuf_3_6_0_prog_clk/X VGND VGND VPWR VPWR sky130_fd_sc_hd__dfxtp_1
XFILLER_16_64 VGND VGND VPWR VPWR sky130_fd_sc_hd__decap_4
Xmem_right_ipin_9.sky130_fd_sc_hd__dfxtp_1_0_ mux_right_ipin_8.mux_l4_in_0_/S mux_right_ipin_9.mux_l1_in_0_/S
+ clkbuf_3_6_0_prog_clk/X VGND VGND VPWR VPWR sky130_fd_sc_hd__dfxtp_1
Xmux_right_ipin_9.mux_l2_in_1_ chany_bottom_in[5] chany_top_in[3] mux_right_ipin_9.mux_l2_in_3_/S
+ mux_right_ipin_9.mux_l2_in_1_/X VGND VGND VPWR VPWR sky130_fd_sc_hd__mux2_1
Xmux_right_ipin_13.mux_l4_in_0_ mux_right_ipin_13.mux_l3_in_1_/X mux_right_ipin_13.mux_l3_in_0_/X
+ mux_right_ipin_13.mux_l4_in_0_/S mux_right_ipin_13.mux_l4_in_0_/X VGND VGND VPWR
+ VPWR sky130_fd_sc_hd__mux2_1
XFILLER_4_141 VGND VGND VPWR VPWR sky130_fd_sc_hd__decap_4
Xmem_right_ipin_11.sky130_fd_sc_hd__dfxtp_1_0_ mux_right_ipin_10.mux_l4_in_0_/S mux_right_ipin_11.mux_l1_in_0_/S
+ clkbuf_3_4_0_prog_clk/X VGND VGND VPWR VPWR sky130_fd_sc_hd__dfxtp_1
Xmux_right_ipin_13.mux_l3_in_1_ mux_right_ipin_13.mux_l2_in_3_/X mux_right_ipin_13.mux_l2_in_2_/X
+ mux_right_ipin_13.mux_l3_in_0_/S mux_right_ipin_13.mux_l3_in_1_/X VGND VGND VPWR
+ VPWR sky130_fd_sc_hd__mux2_1
Xmux_right_ipin_4.mux_l2_in_0_ mux_right_ipin_4.mux_l1_in_1_/X mux_right_ipin_4.mux_l1_in_0_/X
+ mux_right_ipin_4.mux_l2_in_3_/S mux_right_ipin_4.mux_l2_in_0_/X VGND VGND VPWR VPWR
+ sky130_fd_sc_hd__mux2_1
X_20_ _20_/HI _20_/LO VGND VGND VPWR VPWR sky130_fd_sc_hd__conb_1
XFILLER_19_31 VGND VGND VPWR VPWR sky130_fd_sc_hd__decap_4
Xclkbuf_0_prog_clk prog_clk clkbuf_0_prog_clk/X VGND VGND VPWR VPWR sky130_fd_sc_hd__clkbuf_16
XPHY_116 VGND VPWR sky130_fd_sc_hd__tapvpwrvgnd_1
XPHY_105 VGND VPWR sky130_fd_sc_hd__tapvpwrvgnd_1
Xmux_right_ipin_13.mux_l2_in_2_ chany_bottom_in[17] chany_top_in[9] mux_right_ipin_13.mux_l2_in_2_/S
+ mux_right_ipin_13.mux_l2_in_2_/X VGND VGND VPWR VPWR sky130_fd_sc_hd__mux2_1
Xmux_right_ipin_4.mux_l1_in_1_ chany_top_in[2] chany_bottom_in[2] mux_right_ipin_4.mux_l1_in_0_/S
+ mux_right_ipin_4.mux_l1_in_1_/X VGND VGND VPWR VPWR sky130_fd_sc_hd__mux2_1
XFILLER_21_76 VGND VGND VPWR VPWR sky130_fd_sc_hd__decap_4