* NGSPICE file created from cby_1__1_.ext - technology: EFS8A

* Black-box entry subcircuit for scs8hd_decap_3 abstract view
.subckt scs8hd_decap_3 vgnd vpwr
.ends

* Black-box entry subcircuit for scs8hd_fill_2 abstract view
.subckt scs8hd_fill_2 vpwr vgnd
.ends

* Black-box entry subcircuit for scs8hd_buf_2 abstract view
.subckt scs8hd_buf_2 A X vgnd vpwr
.ends

* Black-box entry subcircuit for scs8hd_decap_12 abstract view
.subckt scs8hd_decap_12 vgnd vpwr
.ends

* Black-box entry subcircuit for scs8hd_decap_6 abstract view
.subckt scs8hd_decap_6 vgnd vpwr
.ends

* Black-box entry subcircuit for scs8hd_decap_8 abstract view
.subckt scs8hd_decap_8 vgnd vpwr
.ends

* Black-box entry subcircuit for scs8hd_ebufn_2 abstract view
.subckt scs8hd_ebufn_2 A TEB Z vgnd vpwr
.ends

* Black-box entry subcircuit for scs8hd_inv_8 abstract view
.subckt scs8hd_inv_8 A Y vgnd vpwr
.ends

* Black-box entry subcircuit for scs8hd_diode_2 abstract view
.subckt scs8hd_diode_2 DIODE vgnd vpwr
.ends

* Black-box entry subcircuit for scs8hd_nor4_4 abstract view
.subckt scs8hd_nor4_4 A B C D Y vgnd vpwr
.ends

* Black-box entry subcircuit for scs8hd_fill_1 abstract view
.subckt scs8hd_fill_1 vgnd vpwr
.ends

* Black-box entry subcircuit for scs8hd_lpflow_inputisolatch_1 abstract view
.subckt scs8hd_lpflow_inputisolatch_1 D Q SLEEPB vgnd vpwr
.ends

* Black-box entry subcircuit for scs8hd_tapvpwrvgnd_1 abstract view
.subckt scs8hd_tapvpwrvgnd_1 vgnd vpwr
.ends

* Black-box entry subcircuit for scs8hd_decap_4 abstract view
.subckt scs8hd_decap_4 vgnd vpwr
.ends

* Black-box entry subcircuit for scs8hd_buf_1 abstract view
.subckt scs8hd_buf_1 A X vgnd vpwr
.ends

* Black-box entry subcircuit for scs8hd_inv_1 abstract view
.subckt scs8hd_inv_1 A Y vgnd vpwr
.ends

* Black-box entry subcircuit for scs8hd_or4_4 abstract view
.subckt scs8hd_or4_4 A B C D X vgnd vpwr
.ends

* Black-box entry subcircuit for scs8hd_or2_4 abstract view
.subckt scs8hd_or2_4 A B X vgnd vpwr
.ends

* Black-box entry subcircuit for scs8hd_nor2_4 abstract view
.subckt scs8hd_nor2_4 A B Y vgnd vpwr
.ends

* Black-box entry subcircuit for scs8hd_conb_1 abstract view
.subckt scs8hd_conb_1 HI LO vgnd vpwr
.ends

.subckt cby_1__1_ address[0] address[1] address[2] address[3] address[4] address[5]
+ chany_bottom_in[0] chany_bottom_in[1] chany_bottom_in[2] chany_bottom_in[3] chany_bottom_in[4]
+ chany_bottom_in[5] chany_bottom_in[6] chany_bottom_in[7] chany_bottom_in[8] chany_bottom_out[0]
+ chany_bottom_out[1] chany_bottom_out[2] chany_bottom_out[3] chany_bottom_out[4]
+ chany_bottom_out[5] chany_bottom_out[6] chany_bottom_out[7] chany_bottom_out[8]
+ chany_top_in[0] chany_top_in[1] chany_top_in[2] chany_top_in[3] chany_top_in[4]
+ chany_top_in[5] chany_top_in[6] chany_top_in[7] chany_top_in[8] chany_top_out[0]
+ chany_top_out[1] chany_top_out[2] chany_top_out[3] chany_top_out[4] chany_top_out[5]
+ chany_top_out[6] chany_top_out[7] chany_top_out[8] data_in enable left_grid_pin_1_
+ left_grid_pin_5_ left_grid_pin_9_ right_grid_pin_3_ right_grid_pin_7_ vpwr vgnd
XFILLER_26_52 vgnd vpwr scs8hd_decap_3
XFILLER_3_34 vpwr vgnd scs8hd_fill_2
X_83_ chany_top_in[1] chany_bottom_out[1] vgnd vpwr scs8hd_buf_2
XFILLER_63_39 vgnd vpwr scs8hd_decap_12
XFILLER_6_129 vgnd vpwr scs8hd_decap_12
XFILLER_12_32 vgnd vpwr scs8hd_decap_6
XFILLER_37_51 vgnd vpwr scs8hd_decap_8
XFILLER_37_62 vgnd vpwr scs8hd_decap_3
Xmux_right_ipin_0.mux_l1_in_0_.TGATE_2_.scs8hd_ebufn_2 mux_right_ipin_0.INVTX1_2_.scs8hd_inv_1/Y
+ mem_right_ipin_0.LATCH_2_.latch/Q mux_right_ipin_0.mux_l1_in_0_.TGATE_2_.scs8hd_ebufn_2/Z
+ vgnd vpwr scs8hd_ebufn_2
X_66_ _66_/A _66_/Y vgnd vpwr scs8hd_inv_8
XANTENNA_mem_left_ipin_0.LATCH_1_.latch_SLEEPB _43_/Y vgnd vpwr scs8hd_diode_2
XANTENNA_mux_left_ipin_0.mux_l2_in_0_.TGATE_0_.scs8hd_ebufn_2_TEB mem_left_ipin_0.LATCH_3_.latch/Q
+ vgnd vpwr scs8hd_diode_2
XANTENNA_mux_right_ipin_1.mux_l2_in_0_.TGATE_1_.scs8hd_ebufn_2_TEB _67_/Y vgnd vpwr
+ scs8hd_diode_2
XFILLER_23_75 vpwr vgnd scs8hd_fill_2
XFILLER_23_97 vpwr vgnd scs8hd_fill_2
XFILLER_50_3 vgnd vpwr scs8hd_decap_12
XFILLER_56_117 vgnd vpwr scs8hd_decap_12
X_49_ _38_/A _38_/B _60_/A _49_/D _49_/Y vgnd vpwr scs8hd_nor4_4
XFILLER_18_42 vpwr vgnd scs8hd_fill_2
XFILLER_18_64 vgnd vpwr scs8hd_decap_3
XFILLER_34_52 vgnd vpwr scs8hd_decap_3
XFILLER_34_96 vgnd vpwr scs8hd_decap_12
XFILLER_59_60 vgnd vpwr scs8hd_fill_1
XFILLER_38_117 vgnd vpwr scs8hd_decap_12
Xmem_right_ipin_2.LATCH_1_.latch data_in _69_/A _63_/Y vgnd vpwr scs8hd_lpflow_inputisolatch_1
XFILLER_20_32 vgnd vpwr scs8hd_decap_8
XFILLER_45_51 vgnd vpwr scs8hd_decap_8
XFILLER_45_62 vgnd vpwr scs8hd_decap_12
XFILLER_6_89 vgnd vpwr scs8hd_decap_3
XFILLER_13_3 vgnd vpwr scs8hd_decap_12
XFILLER_34_120 vgnd vpwr scs8hd_decap_12
XFILLER_25_120 vpwr vgnd scs8hd_fill_2
XFILLER_15_65 vpwr vgnd scs8hd_fill_2
XFILLER_40_145 vgnd vpwr scs8hd_fill_1
XFILLER_31_75 vpwr vgnd scs8hd_fill_2
XPHY_170 vgnd vpwr scs8hd_tapvpwrvgnd_1
XFILLER_31_123 vgnd vpwr scs8hd_decap_12
XPHY_181 vgnd vpwr scs8hd_tapvpwrvgnd_1
XPHY_192 vgnd vpwr scs8hd_tapvpwrvgnd_1
XFILLER_13_112 vpwr vgnd scs8hd_fill_2
XFILLER_13_145 vgnd vpwr scs8hd_fill_1
XANTENNA_mux_left_ipin_0.mux_l1_in_1_.TGATE_0_.scs8hd_ebufn_2_A mux_left_ipin_0.INVTX1_3_.scs8hd_inv_1/Y
+ vgnd vpwr scs8hd_diode_2
XFILLER_26_64 vpwr vgnd scs8hd_fill_2
XFILLER_3_57 vpwr vgnd scs8hd_fill_2
X_82_ chany_top_in[2] chany_bottom_out[2] vgnd vpwr scs8hd_buf_2
XFILLER_53_51 vgnd vpwr scs8hd_decap_8
XFILLER_53_62 vgnd vpwr scs8hd_decap_12
X_65_ _65_/A _65_/Y vgnd vpwr scs8hd_inv_8
XFILLER_23_54 vpwr vgnd scs8hd_fill_2
XFILLER_64_94 vgnd vpwr scs8hd_decap_12
XFILLER_0_58 vpwr vgnd scs8hd_fill_2
XFILLER_9_56 vgnd vpwr scs8hd_decap_3
XFILLER_43_3 vgnd vpwr scs8hd_decap_12
X_48_ _38_/A _38_/B _59_/A _49_/D _48_/Y vgnd vpwr scs8hd_nor4_4
XFILLER_56_129 vgnd vpwr scs8hd_decap_12
XANTENNA_mem_right_ipin_0.LATCH_5_.latch_D data_in vgnd vpwr scs8hd_diode_2
XFILLER_18_32 vgnd vpwr scs8hd_decap_8
Xmux_left_ipin_1.mux_l2_in_0_.TGATE_0_.scs8hd_ebufn_2 mux_left_ipin_1.mux_l2_in_0_.TGATE_0_.scs8hd_ebufn_2/A
+ _65_/A mux_left_ipin_1.tap_buf4_0_.scs8hd_inv_1/A vgnd vpwr scs8hd_ebufn_2
XFILLER_34_64 vgnd vpwr scs8hd_decap_4
XFILLER_59_83 vpwr vgnd scs8hd_fill_2
XANTENNA_mem_right_ipin_2.LATCH_1_.latch_D data_in vgnd vpwr scs8hd_diode_2
XFILLER_38_129 vgnd vpwr scs8hd_decap_12
XFILLER_61_143 vgnd vpwr scs8hd_decap_3
XFILLER_61_110 vgnd vpwr scs8hd_decap_12
XANTENNA_mux_left_ipin_1.mux_l2_in_0_.TGATE_0_.scs8hd_ebufn_2_A mux_left_ipin_1.mux_l2_in_0_.TGATE_0_.scs8hd_ebufn_2/A
+ vgnd vpwr scs8hd_diode_2
XANTENNA_mux_right_ipin_0.INVTX1_2_.scs8hd_inv_1_A chany_bottom_in[2] vgnd vpwr scs8hd_diode_2
XFILLER_20_77 vgnd vpwr scs8hd_decap_4
XFILLER_29_42 vpwr vgnd scs8hd_fill_2
XFILLER_29_53 vpwr vgnd scs8hd_fill_2
XFILLER_29_75 vpwr vgnd scs8hd_fill_2
XFILLER_43_110 vgnd vpwr scs8hd_decap_12
XFILLER_43_143 vgnd vpwr scs8hd_decap_3
XFILLER_45_74 vgnd vpwr scs8hd_decap_12
XFILLER_61_62 vgnd vpwr scs8hd_decap_12
XFILLER_61_51 vgnd vpwr scs8hd_decap_8
XFILLER_34_132 vgnd vpwr scs8hd_decap_12
XFILLER_25_143 vgnd vpwr scs8hd_decap_3
XPHY_160 vgnd vpwr scs8hd_tapvpwrvgnd_1
XPHY_171 vgnd vpwr scs8hd_tapvpwrvgnd_1
XPHY_182 vgnd vpwr scs8hd_tapvpwrvgnd_1
XPHY_193 vgnd vpwr scs8hd_tapvpwrvgnd_1
XFILLER_31_135 vgnd vpwr scs8hd_decap_8
XFILLER_22_102 vgnd vpwr scs8hd_decap_12
XANTENNA_mem_left_ipin_0.LATCH_2_.latch_D data_in vgnd vpwr scs8hd_diode_2
XFILLER_26_32 vgnd vpwr scs8hd_decap_12
XANTENNA_mem_left_ipin_1.LATCH_0_.latch_D data_in vgnd vpwr scs8hd_diode_2
X_81_ chany_top_in[3] chany_bottom_out[3] vgnd vpwr scs8hd_buf_2
XFILLER_12_78 vgnd vpwr scs8hd_decap_4
XFILLER_12_89 vgnd vpwr scs8hd_decap_3
XFILLER_53_74 vgnd vpwr scs8hd_decap_12
X_64_ _63_/A address[4] _63_/C address[0] _64_/Y vgnd vpwr scs8hd_nor4_4
XANTENNA_mux_right_ipin_0.tap_buf4_0_.scs8hd_inv_1_A mux_right_ipin_0.tap_buf4_0_.scs8hd_inv_1/A
+ vgnd vpwr scs8hd_diode_2
XFILLER_59_138 vpwr vgnd scs8hd_fill_2
XFILLER_3_3 vgnd vpwr scs8hd_decap_12
XFILLER_0_15 vgnd vpwr scs8hd_decap_12
XFILLER_0_37 vpwr vgnd scs8hd_fill_2
XFILLER_9_79 vgnd vpwr scs8hd_fill_1
XFILLER_36_3 vgnd vpwr scs8hd_decap_12
X_47_ _46_/X _49_/D vgnd vpwr scs8hd_buf_1
XFILLER_34_32 vgnd vpwr scs8hd_decap_12
XFILLER_59_95 vpwr vgnd scs8hd_fill_2
XFILLER_59_73 vgnd vpwr scs8hd_decap_6
XFILLER_59_62 vgnd vpwr scs8hd_decap_8
Xmux_right_ipin_0.INVTX1_2_.scs8hd_inv_1 chany_bottom_in[2] mux_right_ipin_0.INVTX1_2_.scs8hd_inv_1/Y
+ vgnd vpwr scs8hd_inv_1
XANTENNA_mux_right_ipin_2.INVTX1_0_.scs8hd_inv_1_A chany_bottom_in[4] vgnd vpwr scs8hd_diode_2
XFILLER_46_141 vgnd vpwr scs8hd_decap_4
Xmux_left_ipin_1.tap_buf4_0_.scs8hd_inv_1 mux_left_ipin_1.tap_buf4_0_.scs8hd_inv_1/A
+ right_grid_pin_7_ vgnd vpwr scs8hd_inv_1
XFILLER_29_119 vgnd vpwr scs8hd_decap_3
XFILLER_20_89 vgnd vpwr scs8hd_decap_3
XFILLER_45_86 vgnd vpwr scs8hd_decap_12
XFILLER_61_74 vgnd vpwr scs8hd_decap_12
XFILLER_34_144 vpwr vgnd scs8hd_fill_2
XFILLER_15_78 vgnd vpwr scs8hd_fill_1
XANTENNA_mem_right_ipin_1.LATCH_0_.latch_SLEEPB _60_/Y vgnd vpwr scs8hd_diode_2
Xmux_left_ipin_0.INVTX1_1_.scs8hd_inv_1 chany_top_in[0] mux_left_ipin_0.INVTX1_1_.scs8hd_inv_1/Y
+ vgnd vpwr scs8hd_inv_1
XPHY_150 vgnd vpwr scs8hd_tapvpwrvgnd_1
XPHY_161 vgnd vpwr scs8hd_tapvpwrvgnd_1
XPHY_172 vgnd vpwr scs8hd_tapvpwrvgnd_1
XPHY_183 vgnd vpwr scs8hd_tapvpwrvgnd_1
XPHY_194 vgnd vpwr scs8hd_tapvpwrvgnd_1
XFILLER_31_103 vgnd vpwr scs8hd_decap_12
XFILLER_22_114 vgnd vpwr scs8hd_decap_12
XFILLER_26_44 vgnd vpwr scs8hd_decap_8
XFILLER_9_118 vgnd vpwr scs8hd_decap_4
XFILLER_26_77 vpwr vgnd scs8hd_fill_2
XFILLER_42_32 vgnd vpwr scs8hd_decap_12
Xmem_right_ipin_0.LATCH_4_.latch data_in mem_right_ipin_0.LATCH_4_.latch/Q _49_/Y
+ vgnd vpwr scs8hd_lpflow_inputisolatch_1
XFILLER_3_15 vgnd vpwr scs8hd_decap_12
X_80_ chany_top_in[4] chany_bottom_out[4] vgnd vpwr scs8hd_buf_2
XANTENNA_mux_left_ipin_0.mux_l1_in_0_.TGATE_1_.scs8hd_ebufn_2_TEB mem_left_ipin_0.LATCH_1_.latch/Q
+ vgnd vpwr scs8hd_diode_2
XFILLER_8_140 vgnd vpwr scs8hd_decap_6
Xmux_left_ipin_0.mux_l2_in_0_.TGATE_0_.scs8hd_ebufn_2 mux_left_ipin_0.mux_l2_in_0_.TGATE_0_.scs8hd_ebufn_2/A
+ mem_left_ipin_0.LATCH_3_.latch/Q mux_left_ipin_0.tap_buf4_0_.scs8hd_inv_1/A vgnd
+ vpwr scs8hd_ebufn_2
XFILLER_53_86 vgnd vpwr scs8hd_decap_12
XFILLER_5_143 vgnd vpwr scs8hd_decap_3
X_63_ _63_/A address[4] _63_/C _50_/C _63_/Y vgnd vpwr scs8hd_nor4_4
XFILLER_4_91 vgnd vpwr scs8hd_fill_1
XFILLER_2_102 vgnd vpwr scs8hd_decap_8
XFILLER_0_27 vgnd vpwr scs8hd_decap_4
XANTENNA_mux_right_ipin_0.mux_l1_in_0_.TGATE_2_.scs8hd_ebufn_2_A mux_right_ipin_0.INVTX1_2_.scs8hd_inv_1/Y
+ vgnd vpwr scs8hd_diode_2
XFILLER_64_63 vgnd vpwr scs8hd_decap_12
XFILLER_9_47 vgnd vpwr scs8hd_decap_3
XFILLER_29_3 vgnd vpwr scs8hd_decap_12
X_46_ address[3] _62_/B address[5] _46_/D _46_/X vgnd vpwr scs8hd_or4_4
XFILLER_18_56 vpwr vgnd scs8hd_fill_2
XFILLER_18_89 vgnd vpwr scs8hd_decap_3
XFILLER_34_44 vgnd vpwr scs8hd_decap_8
XFILLER_50_32 vgnd vpwr scs8hd_decap_12
XFILLER_59_52 vgnd vpwr scs8hd_decap_8
XFILLER_61_123 vgnd vpwr scs8hd_decap_12
X_29_ address[1] _38_/A vgnd vpwr scs8hd_buf_1
XFILLER_52_145 vgnd vpwr scs8hd_fill_1
XANTENNA_mux_right_ipin_0.mux_l2_in_0_.TGATE_0_.scs8hd_ebufn_2_A mux_right_ipin_0.mux_l1_in_0_.TGATE_2_.scs8hd_ebufn_2/Z
+ vgnd vpwr scs8hd_diode_2
XFILLER_28_131 vgnd vpwr scs8hd_decap_12
XFILLER_29_88 vgnd vpwr scs8hd_decap_6
XFILLER_43_123 vgnd vpwr scs8hd_decap_12
XFILLER_61_86 vgnd vpwr scs8hd_decap_12
XFILLER_45_98 vgnd vpwr scs8hd_decap_12
XFILLER_6_37 vpwr vgnd scs8hd_fill_2
XFILLER_6_15 vgnd vpwr scs8hd_decap_12
XFILLER_19_120 vpwr vgnd scs8hd_fill_2
Xmem_right_ipin_1.LATCH_0_.latch data_in _68_/A _60_/Y vgnd vpwr scs8hd_lpflow_inputisolatch_1
XFILLER_25_101 vgnd vpwr scs8hd_decap_6
XFILLER_25_112 vpwr vgnd scs8hd_fill_2
XFILLER_25_123 vgnd vpwr scs8hd_decap_12
XFILLER_16_145 vgnd vpwr scs8hd_fill_1
XFILLER_31_115 vgnd vpwr scs8hd_decap_6
XPHY_151 vgnd vpwr scs8hd_tapvpwrvgnd_1
XPHY_140 vgnd vpwr scs8hd_tapvpwrvgnd_1
XPHY_162 vgnd vpwr scs8hd_tapvpwrvgnd_1
XPHY_173 vgnd vpwr scs8hd_tapvpwrvgnd_1
XPHY_184 vgnd vpwr scs8hd_tapvpwrvgnd_1
XPHY_195 vgnd vpwr scs8hd_tapvpwrvgnd_1
XFILLER_11_3 vgnd vpwr scs8hd_decap_12
Xmux_left_ipin_0.mux_l1_in_1_.TGATE_1_.scs8hd_ebufn_2 mux_left_ipin_0.INVTX1_4_.scs8hd_inv_1/Y
+ mem_left_ipin_0.LATCH_1_.latch/Q mux_left_ipin_0.mux_l2_in_0_.TGATE_1_.scs8hd_ebufn_2/A
+ vgnd vpwr scs8hd_ebufn_2
XFILLER_22_126 vgnd vpwr scs8hd_decap_12
XFILLER_13_104 vpwr vgnd scs8hd_fill_2
XFILLER_26_89 vgnd vpwr scs8hd_fill_1
XFILLER_13_126 vpwr vgnd scs8hd_fill_2
XFILLER_13_137 vpwr vgnd scs8hd_fill_2
XFILLER_42_44 vgnd vpwr scs8hd_decap_12
XFILLER_3_38 vgnd vpwr scs8hd_decap_4
XFILLER_3_27 vgnd vpwr scs8hd_fill_1
XFILLER_59_3 vgnd vpwr scs8hd_decap_12
XANTENNA_mux_left_ipin_0.mux_l1_in_1_.TGATE_0_.scs8hd_ebufn_2_TEB mem_left_ipin_0.LATCH_0_.latch/Q
+ vgnd vpwr scs8hd_diode_2
XFILLER_53_98 vgnd vpwr scs8hd_decap_12
X_62_ address[3] _62_/B _63_/C vgnd vpwr scs8hd_or2_4
XFILLER_4_81 vpwr vgnd scs8hd_fill_2
XFILLER_23_79 vgnd vpwr scs8hd_decap_3
XFILLER_2_114 vgnd vpwr scs8hd_decap_12
XFILLER_48_32 vgnd vpwr scs8hd_decap_12
XFILLER_64_75 vgnd vpwr scs8hd_decap_12
XFILLER_9_15 vgnd vpwr scs8hd_decap_12
X_45_ address[4] _46_/D vgnd vpwr scs8hd_inv_8
Xmem_left_ipin_0.LATCH_4_.latch data_in mem_left_ipin_0.LATCH_4_.latch/Q _38_/Y vgnd
+ vpwr scs8hd_lpflow_inputisolatch_1
XFILLER_18_46 vpwr vgnd scs8hd_fill_2
XFILLER_55_110 vgnd vpwr scs8hd_decap_12
XFILLER_55_143 vgnd vpwr scs8hd_decap_3
XFILLER_34_89 vgnd vpwr scs8hd_decap_3
XFILLER_50_44 vgnd vpwr scs8hd_decap_12
XFILLER_61_135 vgnd vpwr scs8hd_decap_8
XFILLER_41_3 vgnd vpwr scs8hd_decap_12
XFILLER_1_82 vpwr vgnd scs8hd_fill_2
XFILLER_37_143 vgnd vpwr scs8hd_decap_3
XANTENNA_mux_right_ipin_0.mux_l1_in_0_.TGATE_0_.scs8hd_ebufn_2_TEB mem_right_ipin_0.LATCH_0_.latch/Q
+ vgnd vpwr scs8hd_diode_2
XFILLER_28_143 vgnd vpwr scs8hd_decap_3
XFILLER_43_135 vgnd vpwr scs8hd_decap_8
XFILLER_61_98 vgnd vpwr scs8hd_decap_12
XFILLER_6_27 vgnd vpwr scs8hd_decap_4
XFILLER_19_143 vgnd vpwr scs8hd_decap_3
XFILLER_25_135 vgnd vpwr scs8hd_decap_8
XFILLER_15_47 vgnd vpwr scs8hd_decap_12
XFILLER_15_69 vgnd vpwr scs8hd_decap_3
XFILLER_40_105 vgnd vpwr scs8hd_decap_12
XFILLER_31_79 vgnd vpwr scs8hd_decap_12
XFILLER_56_32 vgnd vpwr scs8hd_decap_12
XPHY_152 vgnd vpwr scs8hd_tapvpwrvgnd_1
XPHY_141 vgnd vpwr scs8hd_tapvpwrvgnd_1
XPHY_130 vgnd vpwr scs8hd_tapvpwrvgnd_1
XFILLER_16_102 vpwr vgnd scs8hd_fill_2
XFILLER_16_113 vgnd vpwr scs8hd_decap_12
XPHY_163 vgnd vpwr scs8hd_tapvpwrvgnd_1
XPHY_174 vgnd vpwr scs8hd_tapvpwrvgnd_1
XPHY_185 vgnd vpwr scs8hd_tapvpwrvgnd_1
XPHY_196 vgnd vpwr scs8hd_tapvpwrvgnd_1
XFILLER_22_138 vgnd vpwr scs8hd_decap_8
XFILLER_13_116 vpwr vgnd scs8hd_fill_2
XANTENNA__31__A address[0] vgnd vpwr scs8hd_diode_2
XFILLER_42_56 vgnd vpwr scs8hd_decap_12
XANTENNA_mux_right_ipin_0.mux_l1_in_1_.TGATE_0_.scs8hd_ebufn_2_A mux_right_ipin_0.INVTX1_3_.scs8hd_inv_1/Y
+ vgnd vpwr scs8hd_diode_2
XFILLER_10_119 vgnd vpwr scs8hd_decap_12
XFILLER_12_15 vgnd vpwr scs8hd_decap_12
XFILLER_5_123 vgnd vpwr scs8hd_decap_12
Xmem_left_ipin_1.LATCH_0_.latch data_in _66_/A _57_/Y vgnd vpwr scs8hd_lpflow_inputisolatch_1
X_61_ address[5] _63_/A vgnd vpwr scs8hd_inv_8
XFILLER_59_119 vgnd vpwr scs8hd_decap_3
XFILLER_4_60 vpwr vgnd scs8hd_fill_2
XFILLER_4_93 vgnd vpwr scs8hd_decap_12
XANTENNA_mux_left_ipin_0.INVTX1_3_.scs8hd_inv_1_A chany_top_in[4] vgnd vpwr scs8hd_diode_2
XFILLER_23_58 vgnd vpwr scs8hd_decap_3
XFILLER_2_126 vgnd vpwr scs8hd_decap_8
XFILLER_48_44 vgnd vpwr scs8hd_decap_12
XFILLER_58_141 vgnd vpwr scs8hd_decap_4
XFILLER_64_87 vgnd vpwr scs8hd_decap_6
XFILLER_64_32 vgnd vpwr scs8hd_decap_12
XFILLER_9_27 vgnd vpwr scs8hd_decap_12
X_44_ _38_/A _40_/X _60_/A _38_/D _44_/Y vgnd vpwr scs8hd_nor4_4
XFILLER_1_3 vgnd vpwr scs8hd_decap_12
XFILLER_50_56 vgnd vpwr scs8hd_decap_12
XFILLER_59_87 vgnd vpwr scs8hd_decap_4
XFILLER_34_3 vgnd vpwr scs8hd_decap_12
XFILLER_20_15 vgnd vpwr scs8hd_decap_12
XANTENNA_mem_left_ipin_0.LATCH_5_.latch_D data_in vgnd vpwr scs8hd_diode_2
XFILLER_29_46 vpwr vgnd scs8hd_fill_2
XFILLER_29_57 vpwr vgnd scs8hd_fill_2
XANTENNA_mux_right_ipin_1.mux_l2_in_0_.TGATE_0_.scs8hd_ebufn_2_A mux_right_ipin_1.mux_l1_in_0_.TGATE_0_.scs8hd_ebufn_2/Z
+ vgnd vpwr scs8hd_diode_2
XANTENNA__34__A address[5] vgnd vpwr scs8hd_diode_2
XFILLER_15_15 vgnd vpwr scs8hd_decap_12
XFILLER_40_117 vgnd vpwr scs8hd_decap_12
XFILLER_15_59 vpwr vgnd scs8hd_fill_2
XANTENNA_mem_right_ipin_0.LATCH_3_.latch_SLEEPB _50_/Y vgnd vpwr scs8hd_diode_2
XANTENNA__29__A address[1] vgnd vpwr scs8hd_diode_2
XFILLER_56_44 vgnd vpwr scs8hd_decap_12
XPHY_153 vgnd vpwr scs8hd_tapvpwrvgnd_1
XPHY_142 vgnd vpwr scs8hd_tapvpwrvgnd_1
XPHY_131 vgnd vpwr scs8hd_tapvpwrvgnd_1
XPHY_164 vgnd vpwr scs8hd_tapvpwrvgnd_1
XFILLER_16_125 vgnd vpwr scs8hd_decap_12
XPHY_175 vgnd vpwr scs8hd_tapvpwrvgnd_1
XPHY_120 vgnd vpwr scs8hd_decap_3
XPHY_186 vgnd vpwr scs8hd_tapvpwrvgnd_1
XPHY_197 vgnd vpwr scs8hd_tapvpwrvgnd_1
XPHY_0 vgnd vpwr scs8hd_decap_3
XFILLER_26_58 vgnd vpwr scs8hd_decap_4
XFILLER_42_68 vgnd vpwr scs8hd_decap_12
XFILLER_32_90 vpwr vgnd scs8hd_fill_2
XFILLER_12_27 vgnd vpwr scs8hd_decap_4
XFILLER_12_49 vpwr vgnd scs8hd_fill_2
Xmux_left_ipin_1.mux_l1_in_0_.TGATE_0_.scs8hd_ebufn_2 mux_left_ipin_1.INVTX1_0_.scs8hd_inv_1/Y
+ _66_/A mux_left_ipin_1.mux_l2_in_0_.TGATE_0_.scs8hd_ebufn_2/A vgnd vpwr scs8hd_ebufn_2
XFILLER_37_68 vgnd vpwr scs8hd_decap_12
XANTENNA__42__A _41_/A vgnd vpwr scs8hd_diode_2
XFILLER_5_135 vgnd vpwr scs8hd_decap_8
XFILLER_5_102 vgnd vpwr scs8hd_decap_12
X_60_ _60_/A _59_/B _60_/Y vgnd vpwr scs8hd_nor2_4
XFILLER_64_3 vgnd vpwr scs8hd_decap_12
XFILLER_23_15 vgnd vpwr scs8hd_decap_12
XFILLER_2_138 vgnd vpwr scs8hd_decap_8
XFILLER_48_56 vgnd vpwr scs8hd_decap_12
XFILLER_64_44 vgnd vpwr scs8hd_decap_12
XANTENNA__37__A address[0] vgnd vpwr scs8hd_diode_2
XFILLER_9_39 vgnd vpwr scs8hd_decap_8
XFILLER_64_145 vgnd vpwr scs8hd_fill_1
X_43_ _38_/A _40_/X _59_/A _38_/D _43_/Y vgnd vpwr scs8hd_nor4_4
XFILLER_18_15 vgnd vpwr scs8hd_decap_12
XFILLER_55_123 vgnd vpwr scs8hd_decap_12
XFILLER_50_68 vgnd vpwr scs8hd_decap_12
XFILLER_59_99 vgnd vpwr scs8hd_decap_12
XFILLER_46_145 vgnd vpwr scs8hd_fill_1
XFILLER_24_80 vgnd vpwr scs8hd_decap_8
XFILLER_27_3 vgnd vpwr scs8hd_decap_12
XFILLER_1_40 vpwr vgnd scs8hd_fill_2
XFILLER_1_62 vgnd vpwr scs8hd_decap_4
XFILLER_1_95 vpwr vgnd scs8hd_fill_2
XFILLER_37_123 vgnd vpwr scs8hd_decap_12
XANTENNA_mem_left_ipin_1.LATCH_0_.latch_SLEEPB _57_/Y vgnd vpwr scs8hd_diode_2
XFILLER_20_27 vgnd vpwr scs8hd_decap_4
Xmux_right_ipin_1.tap_buf4_0_.scs8hd_inv_1 mux_right_ipin_1.tap_buf4_0_.scs8hd_inv_1/A
+ left_grid_pin_5_ vgnd vpwr scs8hd_inv_1
XANTENNA__34__B address[4] vgnd vpwr scs8hd_diode_2
XANTENNA__50__A _41_/A vgnd vpwr scs8hd_diode_2
XANTENNA_mux_left_ipin_0.mux_l2_in_0_.TGATE_1_.scs8hd_ebufn_2_TEB mem_left_ipin_0.LATCH_4_.latch/Q
+ vgnd vpwr scs8hd_diode_2
XFILLER_19_123 vgnd vpwr scs8hd_decap_12
XFILLER_15_27 vgnd vpwr scs8hd_decap_12
XFILLER_40_129 vgnd vpwr scs8hd_decap_12
XFILLER_31_15 vgnd vpwr scs8hd_decap_12
XFILLER_16_137 vgnd vpwr scs8hd_decap_8
XFILLER_56_56 vgnd vpwr scs8hd_decap_12
XPHY_121 vgnd vpwr scs8hd_decap_3
XPHY_143 vgnd vpwr scs8hd_tapvpwrvgnd_1
XANTENNA__45__A address[4] vgnd vpwr scs8hd_diode_2
XPHY_132 vgnd vpwr scs8hd_tapvpwrvgnd_1
XPHY_154 vgnd vpwr scs8hd_tapvpwrvgnd_1
XPHY_165 vgnd vpwr scs8hd_tapvpwrvgnd_1
XPHY_176 vgnd vpwr scs8hd_tapvpwrvgnd_1
XPHY_187 vgnd vpwr scs8hd_tapvpwrvgnd_1
XPHY_198 vgnd vpwr scs8hd_tapvpwrvgnd_1
XPHY_110 vgnd vpwr scs8hd_decap_3
XFILLER_21_70 vgnd vpwr scs8hd_fill_1
XPHY_1 vgnd vpwr scs8hd_decap_3
XFILLER_7_72 vpwr vgnd scs8hd_fill_2
XFILLER_7_83 vpwr vgnd scs8hd_fill_2
XFILLER_26_15 vgnd vpwr scs8hd_decap_12
XFILLER_8_100 vpwr vgnd scs8hd_fill_2
XANTENNA__42__B _40_/X vgnd vpwr scs8hd_diode_2
XFILLER_5_114 vgnd vpwr scs8hd_decap_8
XFILLER_27_80 vgnd vpwr scs8hd_decap_4
XFILLER_57_3 vgnd vpwr scs8hd_decap_12
XFILLER_23_27 vgnd vpwr scs8hd_decap_12
XFILLER_48_68 vgnd vpwr scs8hd_decap_12
XFILLER_64_56 vgnd vpwr scs8hd_decap_6
XANTENNA__53__A address[1] vgnd vpwr scs8hd_diode_2
XFILLER_49_110 vgnd vpwr scs8hd_decap_12
X_42_ _41_/A _40_/X _60_/A _38_/D _42_/Y vgnd vpwr scs8hd_nor4_4
XFILLER_49_143 vgnd vpwr scs8hd_decap_3
XFILLER_18_27 vgnd vpwr scs8hd_decap_4
XFILLER_34_15 vgnd vpwr scs8hd_decap_12
XFILLER_55_135 vgnd vpwr scs8hd_decap_8
XANTENNA__48__A _38_/A vgnd vpwr scs8hd_diode_2
XFILLER_40_80 vgnd vpwr scs8hd_decap_12
XFILLER_37_135 vgnd vpwr scs8hd_decap_8
XFILLER_52_105 vgnd vpwr scs8hd_decap_12
XFILLER_29_15 vgnd vpwr scs8hd_decap_12
XANTENNA__34__C address[3] vgnd vpwr scs8hd_diode_2
XANTENNA__50__B _40_/X vgnd vpwr scs8hd_diode_2
XANTENNA_mux_right_ipin_2.mux_l2_in_0_.TGATE_0_.scs8hd_ebufn_2_A mux_right_ipin_2.mux_l1_in_0_.TGATE_1_.scs8hd_ebufn_2/Z
+ vgnd vpwr scs8hd_diode_2
XFILLER_10_83 vgnd vpwr scs8hd_decap_3
XFILLER_10_72 vpwr vgnd scs8hd_fill_2
XFILLER_10_61 vpwr vgnd scs8hd_fill_2
XFILLER_19_135 vgnd vpwr scs8hd_decap_8
Xmux_left_ipin_0.mux_l1_in_0_.TGATE_0_.scs8hd_ebufn_2 mux_left_ipin_0.INVTX1_0_.scs8hd_inv_1/Y
+ mem_left_ipin_0.LATCH_0_.latch/Q mux_left_ipin_0.mux_l2_in_0_.TGATE_0_.scs8hd_ebufn_2/A
+ vgnd vpwr scs8hd_ebufn_2
XANTENNA_mux_left_ipin_0.mux_l1_in_0_.TGATE_0_.scs8hd_ebufn_2_A mux_left_ipin_0.INVTX1_0_.scs8hd_inv_1/Y
+ vgnd vpwr scs8hd_diode_2
XFILLER_15_39 vgnd vpwr scs8hd_decap_6
XFILLER_25_116 vpwr vgnd scs8hd_fill_2
XFILLER_31_27 vgnd vpwr scs8hd_decap_12
XPHY_100 vgnd vpwr scs8hd_decap_3
XFILLER_56_68 vgnd vpwr scs8hd_decap_12
XPHY_122 vgnd vpwr scs8hd_decap_3
XPHY_144 vgnd vpwr scs8hd_tapvpwrvgnd_1
XANTENNA__61__A address[5] vgnd vpwr scs8hd_diode_2
XPHY_133 vgnd vpwr scs8hd_tapvpwrvgnd_1
XPHY_155 vgnd vpwr scs8hd_tapvpwrvgnd_1
XPHY_166 vgnd vpwr scs8hd_tapvpwrvgnd_1
XPHY_177 vgnd vpwr scs8hd_tapvpwrvgnd_1
XPHY_188 vgnd vpwr scs8hd_tapvpwrvgnd_1
XPHY_199 vgnd vpwr scs8hd_tapvpwrvgnd_1
XPHY_111 vgnd vpwr scs8hd_decap_3
XFILLER_21_93 vpwr vgnd scs8hd_fill_2
XPHY_2 vgnd vpwr scs8hd_decap_3
XFILLER_7_95 vgnd vpwr scs8hd_decap_12
XFILLER_7_62 vgnd vpwr scs8hd_fill_1
XFILLER_7_40 vpwr vgnd scs8hd_fill_2
XFILLER_26_27 vgnd vpwr scs8hd_decap_4
XFILLER_13_108 vpwr vgnd scs8hd_fill_2
XFILLER_42_15 vgnd vpwr scs8hd_decap_12
XANTENNA__56__A _59_/A vgnd vpwr scs8hd_diode_2
XFILLER_37_15 vgnd vpwr scs8hd_decap_12
XFILLER_37_59 vpwr vgnd scs8hd_fill_2
XANTENNA__42__C _60_/A vgnd vpwr scs8hd_diode_2
XFILLER_27_92 vpwr vgnd scs8hd_fill_2
XFILLER_4_85 vgnd vpwr scs8hd_decap_6
XANTENNA_mux_right_ipin_0.mux_l2_in_0_.TGATE_0_.scs8hd_ebufn_2_TEB mem_right_ipin_0.LATCH_3_.latch/Q
+ vgnd vpwr scs8hd_diode_2
XFILLER_23_39 vgnd vpwr scs8hd_decap_12
Xmux_left_ipin_1.mux_l2_in_0_.TGATE_1_.scs8hd_ebufn_2 _72_/HI _65_/Y mux_left_ipin_1.tap_buf4_0_.scs8hd_inv_1/A
+ vgnd vpwr scs8hd_ebufn_2
XANTENNA__53__B address[2] vgnd vpwr scs8hd_diode_2
XFILLER_13_83 vpwr vgnd scs8hd_fill_2
X_41_ _41_/A _40_/X _59_/A _38_/D _41_/Y vgnd vpwr scs8hd_nor4_4
XFILLER_64_125 vgnd vpwr scs8hd_decap_12
XFILLER_38_80 vgnd vpwr scs8hd_decap_12
XANTENNA_mux_right_ipin_0.INVTX1_3_.scs8hd_inv_1_A chany_top_in[2] vgnd vpwr scs8hd_diode_2
XFILLER_34_27 vgnd vpwr scs8hd_decap_4
XFILLER_50_15 vgnd vpwr scs8hd_decap_12
XANTENNA__48__B _38_/B vgnd vpwr scs8hd_diode_2
XANTENNA__64__A _63_/A vgnd vpwr scs8hd_diode_2
XANTENNA_mem_right_ipin_0.LATCH_1_.latch_D data_in vgnd vpwr scs8hd_diode_2
XFILLER_1_53 vpwr vgnd scs8hd_fill_2
XFILLER_52_117 vgnd vpwr scs8hd_decap_12
XFILLER_29_27 vgnd vpwr scs8hd_decap_12
XFILLER_45_15 vgnd vpwr scs8hd_decap_12
XFILLER_45_59 vpwr vgnd scs8hd_fill_2
XANTENNA__34__D _62_/B vgnd vpwr scs8hd_diode_2
XFILLER_10_40 vgnd vpwr scs8hd_decap_4
XANTENNA__50__C _50_/C vgnd vpwr scs8hd_diode_2
XANTENNA__59__A _59_/A vgnd vpwr scs8hd_diode_2
XFILLER_35_81 vgnd vpwr scs8hd_decap_4
XFILLER_35_92 vgnd vpwr scs8hd_decap_8
XFILLER_32_3 vgnd vpwr scs8hd_decap_12
XFILLER_31_39 vgnd vpwr scs8hd_decap_12
XPHY_123 vgnd vpwr scs8hd_decap_3
XPHY_134 vgnd vpwr scs8hd_tapvpwrvgnd_1
XFILLER_16_106 vgnd vpwr scs8hd_decap_4
XPHY_101 vgnd vpwr scs8hd_decap_3
XPHY_112 vgnd vpwr scs8hd_decap_3
XPHY_145 vgnd vpwr scs8hd_tapvpwrvgnd_1
XPHY_156 vgnd vpwr scs8hd_tapvpwrvgnd_1
XPHY_167 vgnd vpwr scs8hd_tapvpwrvgnd_1
XPHY_178 vgnd vpwr scs8hd_tapvpwrvgnd_1
XPHY_189 vgnd vpwr scs8hd_tapvpwrvgnd_1
XPHY_3 vgnd vpwr scs8hd_decap_3
XFILLER_46_80 vgnd vpwr scs8hd_decap_12
XFILLER_42_27 vgnd vpwr scs8hd_decap_4
XANTENNA__56__B _56_/B vgnd vpwr scs8hd_diode_2
XFILLER_16_83 vpwr vgnd scs8hd_fill_2
XFILLER_32_82 vgnd vpwr scs8hd_decap_8
XFILLER_32_93 vgnd vpwr scs8hd_decap_12
XFILLER_37_27 vgnd vpwr scs8hd_decap_12
XFILLER_53_15 vgnd vpwr scs8hd_decap_12
XFILLER_53_59 vpwr vgnd scs8hd_fill_2
XANTENNA__42__D _38_/D vgnd vpwr scs8hd_diode_2
XANTENNA__67__A _67_/A vgnd vpwr scs8hd_diode_2
XFILLER_48_15 vgnd vpwr scs8hd_decap_12
XFILLER_58_145 vgnd vpwr scs8hd_fill_1
XANTENNA__53__C address[0] vgnd vpwr scs8hd_diode_2
XFILLER_13_40 vpwr vgnd scs8hd_fill_2
X_40_ address[2] _40_/X vgnd vpwr scs8hd_buf_1
XANTENNA_mux_right_ipin_2.INVTX1_1_.scs8hd_inv_1_A chany_top_in[4] vgnd vpwr scs8hd_diode_2
XFILLER_49_123 vgnd vpwr scs8hd_decap_12
XFILLER_64_137 vgnd vpwr scs8hd_decap_8
XFILLER_54_80 vgnd vpwr scs8hd_decap_12
XFILLER_62_3 vgnd vpwr scs8hd_decap_12
Xmem_right_ipin_0.LATCH_5_.latch data_in mem_right_ipin_0.LATCH_5_.latch/Q _48_/Y
+ vgnd vpwr scs8hd_lpflow_inputisolatch_1
XANTENNA_mux_left_ipin_0.mux_l1_in_0_.TGATE_2_.scs8hd_ebufn_2_TEB mem_left_ipin_0.LATCH_2_.latch/Q
+ vgnd vpwr scs8hd_diode_2
XFILLER_50_27 vgnd vpwr scs8hd_decap_4
XANTENNA__48__C _59_/A vgnd vpwr scs8hd_diode_2
XANTENNA__64__B address[4] vgnd vpwr scs8hd_diode_2
XANTENNA__80__A chany_top_in[4] vgnd vpwr scs8hd_diode_2
XFILLER_24_61 vgnd vpwr scs8hd_decap_4
XFILLER_40_93 vgnd vpwr scs8hd_decap_12
XFILLER_37_104 vgnd vpwr scs8hd_decap_12
XFILLER_52_129 vgnd vpwr scs8hd_decap_12
XANTENNA_mem_left_ipin_0.LATCH_3_.latch_SLEEPB _41_/Y vgnd vpwr scs8hd_diode_2
XFILLER_45_27 vgnd vpwr scs8hd_decap_12
XFILLER_61_59 vpwr vgnd scs8hd_fill_2
XFILLER_61_15 vgnd vpwr scs8hd_decap_12
XANTENNA__50__D _49_/D vgnd vpwr scs8hd_diode_2
XANTENNA__59__B _59_/B vgnd vpwr scs8hd_diode_2
XFILLER_19_83 vpwr vgnd scs8hd_fill_2
XFILLER_19_104 vpwr vgnd scs8hd_fill_2
XANTENNA_mem_right_ipin_0.LATCH_0_.latch_SLEEPB _53_/Y vgnd vpwr scs8hd_diode_2
XFILLER_25_3 vgnd vpwr scs8hd_decap_12
XANTENNA_mux_left_ipin_1.mux_l1_in_0_.TGATE_0_.scs8hd_ebufn_2_A mux_left_ipin_1.INVTX1_0_.scs8hd_inv_1/Y
+ vgnd vpwr scs8hd_diode_2
XFILLER_56_15 vgnd vpwr scs8hd_decap_12
XPHY_124 vgnd vpwr scs8hd_decap_3
XPHY_146 vgnd vpwr scs8hd_tapvpwrvgnd_1
XPHY_135 vgnd vpwr scs8hd_tapvpwrvgnd_1
XPHY_157 vgnd vpwr scs8hd_tapvpwrvgnd_1
XPHY_102 vgnd vpwr scs8hd_decap_3
XPHY_113 vgnd vpwr scs8hd_decap_3
XPHY_168 vgnd vpwr scs8hd_tapvpwrvgnd_1
XFILLER_21_62 vpwr vgnd scs8hd_fill_2
XFILLER_21_73 vpwr vgnd scs8hd_fill_2
XPHY_179 vgnd vpwr scs8hd_tapvpwrvgnd_1
XFILLER_62_80 vgnd vpwr scs8hd_decap_12
XPHY_4 vgnd vpwr scs8hd_decap_3
XFILLER_7_53 vgnd vpwr scs8hd_decap_6
Xmux_left_ipin_0.mux_l2_in_0_.TGATE_1_.scs8hd_ebufn_2 mux_left_ipin_0.mux_l2_in_0_.TGATE_1_.scs8hd_ebufn_2/A
+ mem_left_ipin_0.LATCH_4_.latch/Q mux_left_ipin_0.tap_buf4_0_.scs8hd_inv_1/A vgnd
+ vpwr scs8hd_ebufn_2
XFILLER_21_121 vgnd vpwr scs8hd_fill_1
XFILLER_21_143 vgnd vpwr scs8hd_decap_3
XFILLER_12_110 vgnd vpwr scs8hd_decap_8
XFILLER_16_62 vgnd vpwr scs8hd_fill_1
XFILLER_16_73 vgnd vpwr scs8hd_decap_3
XANTENNA_mux_left_ipin_1.INVTX1_0_.scs8hd_inv_1_A chany_bottom_in[1] vgnd vpwr scs8hd_diode_2
XFILLER_32_72 vgnd vpwr scs8hd_fill_1
XFILLER_37_39 vgnd vpwr scs8hd_decap_12
XFILLER_53_27 vgnd vpwr scs8hd_decap_12
Xmem_right_ipin_1.LATCH_1_.latch data_in _67_/A _59_/Y vgnd vpwr scs8hd_lpflow_inputisolatch_1
XANTENNA__83__A chany_top_in[1] vgnd vpwr scs8hd_diode_2
XFILLER_4_32 vpwr vgnd scs8hd_fill_2
XFILLER_48_27 vgnd vpwr scs8hd_decap_4
XFILLER_64_15 vgnd vpwr scs8hd_decap_12
XANTENNA__53__D _49_/D vgnd vpwr scs8hd_diode_2
XANTENNA__78__A chany_top_in[6] vgnd vpwr scs8hd_diode_2
XFILLER_1_131 vgnd vpwr scs8hd_decap_3
XFILLER_38_93 vgnd vpwr scs8hd_decap_12
XFILLER_49_135 vgnd vpwr scs8hd_decap_8
XFILLER_55_3 vgnd vpwr scs8hd_decap_12
XFILLER_59_48 vpwr vgnd scs8hd_fill_2
XFILLER_59_15 vgnd vpwr scs8hd_decap_12
XANTENNA__48__D _49_/D vgnd vpwr scs8hd_diode_2
Xmux_right_ipin_1.INVTX1_0_.scs8hd_inv_1 chany_bottom_in[3] mux_right_ipin_1.INVTX1_0_.scs8hd_inv_1/Y
+ vgnd vpwr scs8hd_inv_1
XFILLER_46_105 vgnd vpwr scs8hd_decap_12
XANTENNA__64__C _63_/C vgnd vpwr scs8hd_diode_2
XFILLER_1_66 vgnd vpwr scs8hd_fill_1
XFILLER_1_99 vpwr vgnd scs8hd_fill_2
XFILLER_37_116 vgnd vpwr scs8hd_decap_6
XFILLER_60_141 vgnd vpwr scs8hd_decap_4
XANTENNA_mux_left_ipin_0.mux_l1_in_1_.TGATE_1_.scs8hd_ebufn_2_TEB mem_left_ipin_0.LATCH_1_.latch/Q
+ vgnd vpwr scs8hd_diode_2
XFILLER_45_39 vgnd vpwr scs8hd_decap_12
XFILLER_61_27 vgnd vpwr scs8hd_decap_12
XFILLER_34_108 vgnd vpwr scs8hd_decap_12
XANTENNA__91__A chany_bottom_in[2] vgnd vpwr scs8hd_diode_2
XFILLER_42_141 vgnd vpwr scs8hd_decap_4
Xmux_left_ipin_0.mux_l1_in_1_.TGATE_2_.scs8hd_ebufn_2 mux_left_ipin_0.INVTX1_5_.scs8hd_inv_1/Y
+ mem_left_ipin_0.LATCH_2_.latch/Q mux_left_ipin_0.mux_l2_in_0_.TGATE_1_.scs8hd_ebufn_2/A
+ vgnd vpwr scs8hd_ebufn_2
XFILLER_18_3 vgnd vpwr scs8hd_decap_12
XFILLER_56_27 vgnd vpwr scs8hd_decap_4
XPHY_125 vgnd vpwr scs8hd_decap_3
XPHY_147 vgnd vpwr scs8hd_tapvpwrvgnd_1
XPHY_136 vgnd vpwr scs8hd_tapvpwrvgnd_1
XPHY_158 vgnd vpwr scs8hd_tapvpwrvgnd_1
XPHY_169 vgnd vpwr scs8hd_tapvpwrvgnd_1
Xmem_left_ipin_0.LATCH_5_.latch data_in mem_left_ipin_0.LATCH_5_.latch/Q _36_/Y vgnd
+ vpwr scs8hd_lpflow_inputisolatch_1
XPHY_103 vgnd vpwr scs8hd_decap_3
XPHY_114 vgnd vpwr scs8hd_decap_3
XANTENNA__86__A chany_bottom_in[7] vgnd vpwr scs8hd_diode_2
XPHY_5 vgnd vpwr scs8hd_decap_3
XFILLER_46_93 vgnd vpwr scs8hd_decap_12
XFILLER_30_144 vpwr vgnd scs8hd_fill_2
XFILLER_7_87 vgnd vpwr scs8hd_decap_6
XFILLER_7_76 vgnd vpwr scs8hd_decap_4
XFILLER_8_104 vgnd vpwr scs8hd_decap_12
XANTENNA_mux_right_ipin_0.mux_l1_in_0_.TGATE_1_.scs8hd_ebufn_2_TEB mem_right_ipin_0.LATCH_1_.latch/Q