* NGSPICE file created from cby_8__1_.ext - technology: sky130A

* Black-box entry subcircuit for sky130_fd_sc_hd__fill_2 abstract view
.subckt sky130_fd_sc_hd__fill_2 VGND VNB VPB VPWR
.ends

* Black-box entry subcircuit for sky130_fd_sc_hd__mux2_1 abstract view
.subckt sky130_fd_sc_hd__mux2_1 A0 A1 S X VGND VNB VPB VPWR
.ends

* Black-box entry subcircuit for sky130_fd_sc_hd__buf_2 abstract view
.subckt sky130_fd_sc_hd__buf_2 A X VGND VNB VPB VPWR
.ends

* Black-box entry subcircuit for sky130_fd_sc_hd__dfxtp_1 abstract view
.subckt sky130_fd_sc_hd__dfxtp_1 D Q CLK VGND VNB VPB VPWR
.ends

* Black-box entry subcircuit for sky130_fd_sc_hd__decap_3 abstract view
.subckt sky130_fd_sc_hd__decap_3 VGND VNB VPB VPWR
.ends

* Black-box entry subcircuit for sky130_fd_sc_hd__clkbuf_1 abstract view
.subckt sky130_fd_sc_hd__clkbuf_1 A X VGND VNB VPB VPWR
.ends

* Black-box entry subcircuit for sky130_fd_sc_hd__fill_1 abstract view
.subckt sky130_fd_sc_hd__fill_1 VGND VNB VPB VPWR
.ends

* Black-box entry subcircuit for sky130_fd_sc_hd__decap_4 abstract view
.subckt sky130_fd_sc_hd__decap_4 VGND VNB VPB VPWR
.ends

* Black-box entry subcircuit for sky130_fd_sc_hd__buf_4 abstract view
.subckt sky130_fd_sc_hd__buf_4 A X VGND VNB VPB VPWR
.ends

* Black-box entry subcircuit for sky130_fd_sc_hd__decap_12 abstract view
.subckt sky130_fd_sc_hd__decap_12 VGND VNB VPB VPWR
.ends

* Black-box entry subcircuit for sky130_fd_sc_hd__decap_6 abstract view
.subckt sky130_fd_sc_hd__decap_6 VGND VNB VPB VPWR
.ends

* Black-box entry subcircuit for sky130_fd_sc_hd__conb_1 abstract view
.subckt sky130_fd_sc_hd__conb_1 HI LO VGND VNB VPB VPWR
.ends

* Black-box entry subcircuit for sky130_fd_sc_hd__tapvpwrvgnd_1 abstract view
.subckt sky130_fd_sc_hd__tapvpwrvgnd_1 VGND VPWR
.ends

* Black-box entry subcircuit for sky130_fd_sc_hd__clkbuf_16 abstract view
.subckt sky130_fd_sc_hd__clkbuf_16 A X VGND VNB VPB VPWR
.ends

* Black-box entry subcircuit for sky130_fd_sc_hd__decap_8 abstract view
.subckt sky130_fd_sc_hd__decap_8 VGND VNB VPB VPWR
.ends

* Black-box entry subcircuit for sky130_fd_sc_hd__diode_2 abstract view
.subckt sky130_fd_sc_hd__diode_2 DIODE VGND VNB VPB VPWR
.ends

.subckt cby_8__1_ ccff_head ccff_tail chany_bottom_in[0] chany_bottom_in[10] chany_bottom_in[11]
+ chany_bottom_in[12] chany_bottom_in[13] chany_bottom_in[14] chany_bottom_in[15]
+ chany_bottom_in[16] chany_bottom_in[17] chany_bottom_in[18] chany_bottom_in[19]
+ chany_bottom_in[1] chany_bottom_in[2] chany_bottom_in[3] chany_bottom_in[4] chany_bottom_in[5]
+ chany_bottom_in[6] chany_bottom_in[7] chany_bottom_in[8] chany_bottom_in[9] chany_bottom_out[0]
+ chany_bottom_out[10] chany_bottom_out[11] chany_bottom_out[12] chany_bottom_out[13]
+ chany_bottom_out[14] chany_bottom_out[15] chany_bottom_out[16] chany_bottom_out[17]
+ chany_bottom_out[18] chany_bottom_out[19] chany_bottom_out[1] chany_bottom_out[2]
+ chany_bottom_out[3] chany_bottom_out[4] chany_bottom_out[5] chany_bottom_out[6]
+ chany_bottom_out[7] chany_bottom_out[8] chany_bottom_out[9] chany_top_in[0] chany_top_in[10]
+ chany_top_in[11] chany_top_in[12] chany_top_in[13] chany_top_in[14] chany_top_in[15]
+ chany_top_in[16] chany_top_in[17] chany_top_in[18] chany_top_in[19] chany_top_in[1]
+ chany_top_in[2] chany_top_in[3] chany_top_in[4] chany_top_in[5] chany_top_in[6]
+ chany_top_in[7] chany_top_in[8] chany_top_in[9] chany_top_out[0] chany_top_out[10]
+ chany_top_out[11] chany_top_out[12] chany_top_out[13] chany_top_out[14] chany_top_out[15]
+ chany_top_out[16] chany_top_out[17] chany_top_out[18] chany_top_out[19] chany_top_out[1]
+ chany_top_out[2] chany_top_out[3] chany_top_out[4] chany_top_out[5] chany_top_out[6]
+ chany_top_out[7] chany_top_out[8] chany_top_out[9] left_grid_pin_16_ left_grid_pin_17_
+ left_grid_pin_18_ left_grid_pin_19_ left_grid_pin_20_ left_grid_pin_21_ left_grid_pin_22_
+ left_grid_pin_23_ left_grid_pin_24_ left_grid_pin_25_ left_grid_pin_26_ left_grid_pin_27_
+ left_grid_pin_28_ left_grid_pin_29_ left_grid_pin_30_ left_grid_pin_31_ prog_clk
+ right_grid_pin_0_ VPWR VGND
XFILLER_13_155 VGND VGND VPWR VPWR sky130_fd_sc_hd__fill_2
XFILLER_3_78 VGND VGND VPWR VPWR sky130_fd_sc_hd__fill_2
XFILLER_3_89 VGND VGND VPWR VPWR sky130_fd_sc_hd__fill_2
Xmux_right_ipin_11.mux_l2_in_0_ mux_right_ipin_11.mux_l1_in_1_/X mux_right_ipin_11.mux_l1_in_0_/X
+ mux_right_ipin_11.mux_l2_in_2_/S mux_right_ipin_11.mux_l2_in_0_/X VGND VGND VPWR
+ VPWR sky130_fd_sc_hd__mux2_1
XFILLER_12_32 VGND VGND VPWR VPWR sky130_fd_sc_hd__fill_2
X_66_ chany_bottom_in[7] chany_top_out[7] VGND VGND VPWR VPWR sky130_fd_sc_hd__buf_2
XFILLER_23_42 VGND VGND VPWR VPWR sky130_fd_sc_hd__fill_2
Xmem_right_ipin_15.sky130_fd_sc_hd__dfxtp_1_1_ mux_right_ipin_15.mux_l1_in_0_/S mux_right_ipin_15.mux_l2_in_3_/S
+ clkbuf_3_6_0_prog_clk/X VGND VGND VPWR VPWR sky130_fd_sc_hd__dfxtp_1
XFILLER_2_154 VGND VGND VPWR VPWR sky130_fd_sc_hd__decap_3
Xmux_right_ipin_11.mux_l1_in_1_ chany_top_in[2] chany_bottom_in[2] mux_right_ipin_11.mux_l1_in_1_/S
+ mux_right_ipin_11.mux_l1_in_1_/X VGND VGND VPWR VPWR sky130_fd_sc_hd__mux2_1
Xclkbuf_3_4_0_prog_clk clkbuf_3_4_0_prog_clk/A clkbuf_3_4_0_prog_clk/X VGND VGND VPWR
+ VPWR sky130_fd_sc_hd__clkbuf_1
X_49_ chany_top_in[4] chany_bottom_out[4] VGND VGND VPWR VPWR sky130_fd_sc_hd__buf_2
XFILLER_22_7 VGND VGND VPWR VPWR sky130_fd_sc_hd__fill_1
Xmem_right_ipin_12.sky130_fd_sc_hd__dfxtp_1_0_ mux_right_ipin_11.mux_l4_in_0_/S mux_right_ipin_12.mux_l1_in_0_/S
+ clkbuf_3_2_0_prog_clk/X VGND VGND VPWR VPWR sky130_fd_sc_hd__dfxtp_1
XFILLER_20_54 VGND VGND VPWR VPWR sky130_fd_sc_hd__fill_2
XFILLER_20_43 VGND VGND VPWR VPWR sky130_fd_sc_hd__fill_2
XFILLER_20_32 VGND VGND VPWR VPWR sky130_fd_sc_hd__fill_2
XFILLER_20_10 VGND VGND VPWR VPWR sky130_fd_sc_hd__fill_2
XFILLER_13_3 VGND VGND VPWR VPWR sky130_fd_sc_hd__decap_4
XFILLER_16_142 VGND VGND VPWR VPWR sky130_fd_sc_hd__fill_2
XFILLER_16_131 VGND VGND VPWR VPWR sky130_fd_sc_hd__fill_2
XFILLER_16_120 VGND VGND VPWR VPWR sky130_fd_sc_hd__fill_2
XFILLER_13_112 VGND VGND VPWR VPWR sky130_fd_sc_hd__fill_2
XFILLER_12_88 VGND VGND VPWR VPWR sky130_fd_sc_hd__decap_4
XFILLER_12_66 VGND VGND VPWR VPWR sky130_fd_sc_hd__fill_2
XFILLER_12_11 VGND VGND VPWR VPWR sky130_fd_sc_hd__fill_2
X_65_ chany_bottom_in[8] chany_top_out[8] VGND VGND VPWR VPWR sky130_fd_sc_hd__buf_2
Xmux_right_ipin_8.sky130_fd_sc_hd__buf_4_0_ mux_right_ipin_8.mux_l4_in_0_/X left_grid_pin_24_
+ VGND VGND VPWR VPWR sky130_fd_sc_hd__buf_4
Xmem_right_ipin_15.sky130_fd_sc_hd__dfxtp_1_0_ mux_right_ipin_14.mux_l4_in_0_/S mux_right_ipin_15.mux_l1_in_0_/S
+ clkbuf_3_3_0_prog_clk/X VGND VGND VPWR VPWR sky130_fd_sc_hd__dfxtp_1
XFILLER_9_12 VGND VGND VPWR VPWR sky130_fd_sc_hd__fill_2
XFILLER_9_23 VGND VGND VPWR VPWR sky130_fd_sc_hd__fill_2
XFILLER_9_78 VGND VGND VPWR VPWR sky130_fd_sc_hd__fill_2
Xmux_right_ipin_11.mux_l1_in_0_ chany_top_in[0] chany_bottom_in[0] mux_right_ipin_11.mux_l1_in_1_/S
+ mux_right_ipin_11.mux_l1_in_0_/X VGND VGND VPWR VPWR sky130_fd_sc_hd__mux2_1
X_48_ chany_top_in[5] chany_bottom_out[5] VGND VGND VPWR VPWR sky130_fd_sc_hd__buf_2
XFILLER_16_154 VGND VGND VPWR VPWR sky130_fd_sc_hd__decap_3
XFILLER_22_124 VGND VGND VPWR VPWR sky130_fd_sc_hd__decap_12
XFILLER_22_113 VGND VGND VPWR VPWR sky130_fd_sc_hd__fill_2
XFILLER_22_102 VGND VGND VPWR VPWR sky130_fd_sc_hd__fill_2
XFILLER_10_127 VGND VGND VPWR VPWR sky130_fd_sc_hd__fill_2
XFILLER_10_138 VGND VGND VPWR VPWR sky130_fd_sc_hd__fill_2
XFILLER_10_149 VGND VGND VPWR VPWR sky130_fd_sc_hd__decap_4
X_64_ chany_bottom_in[9] chany_top_out[9] VGND VGND VPWR VPWR sky130_fd_sc_hd__buf_2
Xmux_right_ipin_3.mux_l2_in_3_ _31_/HI chany_top_in[14] mux_right_ipin_3.mux_l2_in_0_/S
+ mux_right_ipin_3.mux_l2_in_3_/X VGND VGND VPWR VPWR sky130_fd_sc_hd__mux2_1
XFILLER_23_66 VGND VGND VPWR VPWR sky130_fd_sc_hd__fill_2
XFILLER_23_22 VGND VGND VPWR VPWR sky130_fd_sc_hd__fill_2
XFILLER_23_11 VGND VGND VPWR VPWR sky130_fd_sc_hd__fill_1
XFILLER_3_3 VGND VGND VPWR VPWR sky130_fd_sc_hd__decap_3
X_47_ chany_top_in[6] chany_bottom_out[6] VGND VGND VPWR VPWR sky130_fd_sc_hd__buf_2
XFILLER_18_88 VGND VGND VPWR VPWR sky130_fd_sc_hd__decap_4
XFILLER_18_77 VGND VGND VPWR VPWR sky130_fd_sc_hd__fill_2
XFILLER_20_89 VGND VGND VPWR VPWR sky130_fd_sc_hd__decap_3
Xmux_right_ipin_3.mux_l4_in_0_ mux_right_ipin_3.mux_l3_in_1_/X mux_right_ipin_3.mux_l3_in_0_/X
+ mux_right_ipin_3.mux_l4_in_0_/S mux_right_ipin_3.mux_l4_in_0_/X VGND VGND VPWR VPWR
+ sky130_fd_sc_hd__mux2_1
XFILLER_6_58 VGND VGND VPWR VPWR sky130_fd_sc_hd__fill_2
XFILLER_15_89 VGND VGND VPWR VPWR sky130_fd_sc_hd__fill_2
XFILLER_15_78 VGND VGND VPWR VPWR sky130_fd_sc_hd__fill_2
XFILLER_15_23 VGND VGND VPWR VPWR sky130_fd_sc_hd__fill_2
XFILLER_15_12 VGND VGND VPWR VPWR sky130_fd_sc_hd__fill_2
XFILLER_22_136 VGND VGND VPWR VPWR sky130_fd_sc_hd__decap_12
Xmux_right_ipin_8.mux_l2_in_3_ _19_/HI chany_top_in[19] mux_right_ipin_8.mux_l2_in_2_/S
+ mux_right_ipin_8.mux_l2_in_3_/X VGND VGND VPWR VPWR sky130_fd_sc_hd__mux2_1
Xclkbuf_2_1_0_prog_clk clkbuf_2_1_0_prog_clk/A clkbuf_3_3_0_prog_clk/A VGND VGND VPWR
+ VPWR sky130_fd_sc_hd__clkbuf_1
Xmux_right_ipin_3.mux_l3_in_1_ mux_right_ipin_3.mux_l2_in_3_/X mux_right_ipin_3.mux_l2_in_2_/X
+ mux_right_ipin_3.mux_l3_in_0_/S mux_right_ipin_3.mux_l3_in_1_/X VGND VGND VPWR VPWR
+ sky130_fd_sc_hd__mux2_1
XFILLER_3_15 VGND VGND VPWR VPWR sky130_fd_sc_hd__fill_2
XFILLER_3_48 VGND VGND VPWR VPWR sky130_fd_sc_hd__fill_2
XFILLER_3_59 VGND VGND VPWR VPWR sky130_fd_sc_hd__fill_2
XFILLER_5_132 VGND VGND VPWR VPWR sky130_fd_sc_hd__fill_2
XFILLER_5_143 VGND VGND VPWR VPWR sky130_fd_sc_hd__fill_2
XFILLER_5_154 VGND VGND VPWR VPWR sky130_fd_sc_hd__decap_3
X_63_ chany_bottom_in[10] chany_top_out[10] VGND VGND VPWR VPWR sky130_fd_sc_hd__buf_2
Xmux_right_ipin_3.mux_l2_in_2_ chany_bottom_in[14] chany_top_in[8] mux_right_ipin_3.mux_l2_in_0_/S
+ mux_right_ipin_3.mux_l2_in_2_/X VGND VGND VPWR VPWR sky130_fd_sc_hd__mux2_1
Xmux_right_ipin_8.mux_l4_in_0_ mux_right_ipin_8.mux_l3_in_1_/X mux_right_ipin_8.mux_l3_in_0_/X
+ mux_right_ipin_8.mux_l4_in_0_/S mux_right_ipin_8.mux_l4_in_0_/X VGND VGND VPWR VPWR
+ sky130_fd_sc_hd__mux2_1
XFILLER_0_49 VGND VGND VPWR VPWR sky130_fd_sc_hd__fill_2
XFILLER_0_38 VGND VGND VPWR VPWR sky130_fd_sc_hd__fill_2
XFILLER_2_102 VGND VGND VPWR VPWR sky130_fd_sc_hd__fill_2
XFILLER_2_113 VGND VGND VPWR VPWR sky130_fd_sc_hd__fill_2
XFILLER_2_124 VGND VGND VPWR VPWR sky130_fd_sc_hd__fill_2
XFILLER_2_135 VGND VGND VPWR VPWR sky130_fd_sc_hd__fill_2
XFILLER_2_146 VGND VGND VPWR VPWR sky130_fd_sc_hd__decap_6
X_46_ chany_top_in[7] chany_bottom_out[7] VGND VGND VPWR VPWR sky130_fd_sc_hd__buf_2
X_29_ _29_/HI _29_/LO VGND VGND VPWR VPWR sky130_fd_sc_hd__conb_1
Xmux_right_ipin_8.mux_l3_in_1_ mux_right_ipin_8.mux_l2_in_3_/X mux_right_ipin_8.mux_l2_in_2_/X
+ mux_right_ipin_8.mux_l3_in_0_/S mux_right_ipin_8.mux_l3_in_1_/X VGND VGND VPWR VPWR
+ sky130_fd_sc_hd__mux2_1
Xmux_right_ipin_1.sky130_fd_sc_hd__buf_4_0_ mux_right_ipin_1.mux_l4_in_0_/X left_grid_pin_17_
+ VGND VGND VPWR VPWR sky130_fd_sc_hd__buf_4
Xclkbuf_3_3_0_prog_clk clkbuf_3_3_0_prog_clk/A clkbuf_3_3_0_prog_clk/X VGND VGND VPWR
+ VPWR sky130_fd_sc_hd__clkbuf_1
Xmux_right_ipin_8.mux_l2_in_2_ chany_bottom_in[19] chany_top_in[13] mux_right_ipin_8.mux_l2_in_2_/S
+ mux_right_ipin_8.mux_l2_in_2_/X VGND VGND VPWR VPWR sky130_fd_sc_hd__mux2_1
XFILLER_11_3 VGND VGND VPWR VPWR sky130_fd_sc_hd__decap_4
XFILLER_22_148 VGND VGND VPWR VPWR sky130_fd_sc_hd__decap_4
Xmux_right_ipin_3.mux_l3_in_0_ mux_right_ipin_3.mux_l2_in_1_/X mux_right_ipin_3.mux_l2_in_0_/X
+ mux_right_ipin_3.mux_l3_in_0_/S mux_right_ipin_3.mux_l3_in_0_/X VGND VGND VPWR VPWR
+ sky130_fd_sc_hd__mux2_1
X_62_ chany_bottom_in[11] chany_top_out[11] VGND VGND VPWR VPWR sky130_fd_sc_hd__buf_2
Xmux_right_ipin_3.mux_l2_in_1_ chany_bottom_in[8] mux_right_ipin_3.mux_l1_in_2_/X
+ mux_right_ipin_3.mux_l2_in_0_/S mux_right_ipin_3.mux_l2_in_1_/X VGND VGND VPWR VPWR
+ sky130_fd_sc_hd__mux2_1
XFILLER_9_59 VGND VGND VPWR VPWR sky130_fd_sc_hd__fill_2
X_45_ chany_top_in[8] chany_bottom_out[8] VGND VGND VPWR VPWR sky130_fd_sc_hd__buf_2
Xmux_right_ipin_12.mux_l2_in_3_ _26_/HI chany_top_in[17] mux_right_ipin_12.mux_l2_in_1_/S
+ mux_right_ipin_12.mux_l2_in_3_/X VGND VGND VPWR VPWR sky130_fd_sc_hd__mux2_1
Xmux_right_ipin_3.mux_l1_in_2_ chany_top_in[4] chany_bottom_in[4] mux_right_ipin_3.mux_l1_in_0_/S
+ mux_right_ipin_3.mux_l1_in_2_/X VGND VGND VPWR VPWR sky130_fd_sc_hd__mux2_1
Xmux_right_ipin_8.mux_l3_in_0_ mux_right_ipin_8.mux_l2_in_1_/X mux_right_ipin_8.mux_l2_in_0_/X
+ mux_right_ipin_8.mux_l3_in_0_/S mux_right_ipin_8.mux_l3_in_0_/X VGND VGND VPWR VPWR
+ sky130_fd_sc_hd__mux2_1
X_28_ _28_/HI _28_/LO VGND VGND VPWR VPWR sky130_fd_sc_hd__conb_1
XFILLER_1_93 VGND VGND VPWR VPWR sky130_fd_sc_hd__fill_2
XFILLER_1_82 VGND VGND VPWR VPWR sky130_fd_sc_hd__fill_2
XFILLER_1_71 VGND VGND VPWR VPWR sky130_fd_sc_hd__fill_2
XFILLER_19_143 VGND VGND VPWR VPWR sky130_fd_sc_hd__decap_12
XFILLER_19_132 VGND VGND VPWR VPWR sky130_fd_sc_hd__fill_2
Xmux_right_ipin_8.mux_l2_in_1_ chany_bottom_in[13] mux_right_ipin_8.mux_l1_in_2_/X
+ mux_right_ipin_8.mux_l2_in_2_/S mux_right_ipin_8.mux_l2_in_1_/X VGND VGND VPWR VPWR
+ sky130_fd_sc_hd__mux2_1
Xmux_right_ipin_12.mux_l4_in_0_ mux_right_ipin_12.mux_l3_in_1_/X mux_right_ipin_12.mux_l3_in_0_/X
+ mux_right_ipin_12.mux_l4_in_0_/S mux_right_ipin_12.mux_l4_in_0_/X VGND VGND VPWR
+ VPWR sky130_fd_sc_hd__mux2_1
XFILLER_8_120 VGND VGND VPWR VPWR sky130_fd_sc_hd__fill_2
XFILLER_8_131 VGND VGND VPWR VPWR sky130_fd_sc_hd__fill_2
XFILLER_8_142 VGND VGND VPWR VPWR sky130_fd_sc_hd__fill_2
Xmux_right_ipin_8.mux_l1_in_2_ chany_top_in[9] chany_bottom_in[9] mux_right_ipin_8.mux_l1_in_0_/S
+ mux_right_ipin_8.mux_l1_in_2_/X VGND VGND VPWR VPWR sky130_fd_sc_hd__mux2_1
X_61_ chany_bottom_in[12] chany_top_out[12] VGND VGND VPWR VPWR sky130_fd_sc_hd__buf_2
Xmux_right_ipin_12.mux_l3_in_1_ mux_right_ipin_12.mux_l2_in_3_/X mux_right_ipin_12.mux_l2_in_2_/X
+ mux_right_ipin_12.mux_l3_in_1_/S mux_right_ipin_12.mux_l3_in_1_/X VGND VGND VPWR
+ VPWR sky130_fd_sc_hd__mux2_1
Xmux_right_ipin_3.mux_l2_in_0_ mux_right_ipin_3.mux_l1_in_1_/X mux_right_ipin_3.mux_l1_in_0_/X
+ mux_right_ipin_3.mux_l2_in_0_/S mux_right_ipin_3.mux_l2_in_0_/X VGND VGND VPWR VPWR
+ sky130_fd_sc_hd__mux2_1
XFILLER_23_36 VGND VGND VPWR VPWR sky130_fd_sc_hd__fill_2
XFILLER_0_29 VGND VGND VPWR VPWR sky130_fd_sc_hd__fill_2
XFILLER_0_18 VGND VGND VPWR VPWR sky130_fd_sc_hd__fill_2
X_44_ chany_top_in[9] chany_bottom_out[9] VGND VGND VPWR VPWR sky130_fd_sc_hd__buf_2
Xmux_right_ipin_12.mux_l2_in_2_ chany_bottom_in[17] chany_top_in[13] mux_right_ipin_12.mux_l2_in_1_/S
+ mux_right_ipin_12.mux_l2_in_2_/X VGND VGND VPWR VPWR sky130_fd_sc_hd__mux2_1
XFILLER_1_3 VGND VGND VPWR VPWR sky130_fd_sc_hd__decap_3
Xmux_right_ipin_3.mux_l1_in_1_ chany_top_in[2] chany_bottom_in[2] mux_right_ipin_3.mux_l1_in_0_/S
+ mux_right_ipin_3.mux_l1_in_1_/X VGND VGND VPWR VPWR sky130_fd_sc_hd__mux2_1
X_27_ _27_/HI _27_/LO VGND VGND VPWR VPWR sky130_fd_sc_hd__conb_1
XFILLER_19_155 VGND VGND VPWR VPWR sky130_fd_sc_hd__fill_2
XFILLER_19_111 VGND VGND VPWR VPWR sky130_fd_sc_hd__fill_2
XFILLER_19_100 VGND VGND VPWR VPWR sky130_fd_sc_hd__fill_2
XFILLER_15_59 VGND VGND VPWR VPWR sky130_fd_sc_hd__fill_2
XFILLER_16_147 VGND VGND VPWR VPWR sky130_fd_sc_hd__fill_2
Xmux_right_ipin_8.mux_l2_in_0_ mux_right_ipin_8.mux_l1_in_1_/X mux_right_ipin_8.mux_l1_in_0_/X
+ mux_right_ipin_8.mux_l2_in_2_/S mux_right_ipin_8.mux_l2_in_0_/X VGND VGND VPWR VPWR
+ sky130_fd_sc_hd__mux2_1
XPHY_0 VGND VGND VPWR VPWR sky130_fd_sc_hd__decap_3
XFILLER_13_139 VGND VGND VPWR VPWR sky130_fd_sc_hd__fill_2
XFILLER_13_117 VGND VGND VPWR VPWR sky130_fd_sc_hd__fill_2
XFILLER_12_150 VGND VGND VPWR VPWR sky130_fd_sc_hd__decap_3
XFILLER_8_154 VGND VGND VPWR VPWR sky130_fd_sc_hd__decap_3
Xmux_right_ipin_8.mux_l1_in_1_ chany_top_in[3] chany_bottom_in[3] mux_right_ipin_8.mux_l1_in_0_/S
+ mux_right_ipin_8.mux_l1_in_1_/X VGND VGND VPWR VPWR sky130_fd_sc_hd__mux2_1
XFILLER_10_109 VGND VGND VPWR VPWR sky130_fd_sc_hd__fill_2
X_60_ chany_bottom_in[13] chany_top_out[13] VGND VGND VPWR VPWR sky130_fd_sc_hd__buf_2
Xmux_right_ipin_12.mux_l3_in_0_ mux_right_ipin_12.mux_l2_in_1_/X mux_right_ipin_12.mux_l2_in_0_/X
+ mux_right_ipin_12.mux_l3_in_1_/S mux_right_ipin_12.mux_l3_in_0_/X VGND VGND VPWR
+ VPWR sky130_fd_sc_hd__mux2_1
Xclkbuf_2_0_0_prog_clk clkbuf_2_1_0_prog_clk/A clkbuf_3_0_0_prog_clk/A VGND VGND VPWR
+ VPWR sky130_fd_sc_hd__clkbuf_1
XFILLER_23_59 VGND VGND VPWR VPWR sky130_fd_sc_hd__fill_2
XFILLER_23_48 VGND VGND VPWR VPWR sky130_fd_sc_hd__fill_2
X_43_ chany_top_in[10] chany_bottom_out[10] VGND VGND VPWR VPWR sky130_fd_sc_hd__buf_2
Xmux_right_ipin_12.mux_l2_in_1_ chany_bottom_in[13] mux_right_ipin_12.mux_l1_in_2_/X
+ mux_right_ipin_12.mux_l2_in_1_/S mux_right_ipin_12.mux_l2_in_1_/X VGND VGND VPWR
+ VPWR sky130_fd_sc_hd__mux2_1
XFILLER_18_59 VGND VGND VPWR VPWR sky130_fd_sc_hd__fill_2
Xmux_right_ipin_3.mux_l1_in_0_ chany_top_in[0] chany_bottom_in[0] mux_right_ipin_3.mux_l1_in_0_/S
+ mux_right_ipin_3.mux_l1_in_0_/X VGND VGND VPWR VPWR sky130_fd_sc_hd__mux2_1
XFILLER_24_91 VGND VGND VPWR VPWR sky130_fd_sc_hd__fill_2
X_26_ _26_/HI _26_/LO VGND VGND VPWR VPWR sky130_fd_sc_hd__conb_1
XFILLER_6_18 VGND VGND VPWR VPWR sky130_fd_sc_hd__fill_2
XFILLER_6_29 VGND VGND VPWR VPWR sky130_fd_sc_hd__fill_2
Xmux_right_ipin_12.mux_l1_in_2_ chany_top_in[7] chany_bottom_in[7] mux_right_ipin_12.mux_l1_in_0_/S
+ mux_right_ipin_12.mux_l1_in_2_/X VGND VGND VPWR VPWR sky130_fd_sc_hd__mux2_1
XPHY_110 VGND VPWR sky130_fd_sc_hd__tapvpwrvgnd_1
XPHY_1 VGND VGND VPWR VPWR sky130_fd_sc_hd__decap_3
XFILLER_21_151 VGND VGND VPWR VPWR sky130_fd_sc_hd__decap_6
Xclkbuf_3_2_0_prog_clk clkbuf_3_3_0_prog_clk/A clkbuf_3_2_0_prog_clk/X VGND VGND VPWR
+ VPWR sky130_fd_sc_hd__clkbuf_1
Xmem_right_ipin_0.sky130_fd_sc_hd__dfxtp_1_3_ mux_right_ipin_0.mux_l3_in_0_/S mux_right_ipin_0.mux_l4_in_0_/S
+ clkbuf_3_0_0_prog_clk/X VGND VGND VPWR VPWR sky130_fd_sc_hd__dfxtp_1
Xmux_right_ipin_8.mux_l1_in_0_ chany_top_in[1] chany_bottom_in[1] mux_right_ipin_8.mux_l1_in_0_/S
+ mux_right_ipin_8.mux_l1_in_0_/X VGND VGND VPWR VPWR sky130_fd_sc_hd__mux2_1
XFILLER_23_16 VGND VGND VPWR VPWR sky130_fd_sc_hd__fill_2
XFILLER_1_150 VGND VGND VPWR VPWR sky130_fd_sc_hd__decap_6
X_42_ chany_top_in[11] chany_bottom_out[11] VGND VGND VPWR VPWR sky130_fd_sc_hd__buf_2
Xmux_right_ipin_12.mux_l2_in_0_ mux_right_ipin_12.mux_l1_in_1_/X mux_right_ipin_12.mux_l1_in_0_/X
+ mux_right_ipin_12.mux_l2_in_1_/S mux_right_ipin_12.mux_l2_in_0_/X VGND VGND VPWR
+ VPWR sky130_fd_sc_hd__mux2_1
Xmux_right_ipin_12.sky130_fd_sc_hd__buf_4_0_ mux_right_ipin_12.mux_l4_in_0_/X left_grid_pin_28_
+ VGND VGND VPWR VPWR sky130_fd_sc_hd__buf_4
X_25_ _25_/HI _25_/LO VGND VGND VPWR VPWR sky130_fd_sc_hd__conb_1
Xmux_right_ipin_12.mux_l1_in_1_ chany_top_in[3] chany_bottom_in[3] mux_right_ipin_12.mux_l1_in_0_/S
+ mux_right_ipin_12.mux_l1_in_1_/X VGND VGND VPWR VPWR sky130_fd_sc_hd__mux2_1
Xmem_right_ipin_3.sky130_fd_sc_hd__dfxtp_1_3_ mux_right_ipin_3.mux_l3_in_0_/S mux_right_ipin_3.mux_l4_in_0_/S
+ clkbuf_3_2_0_prog_clk/X VGND VGND VPWR VPWR sky130_fd_sc_hd__dfxtp_1
Xmux_right_ipin_4.sky130_fd_sc_hd__buf_4_0_ mux_right_ipin_4.mux_l4_in_0_/X left_grid_pin_20_
+ VGND VGND VPWR VPWR sky130_fd_sc_hd__buf_4
XPHY_100 VGND VPWR sky130_fd_sc_hd__tapvpwrvgnd_1
XPHY_111 VGND VPWR sky130_fd_sc_hd__tapvpwrvgnd_1
XFILLER_22_119 VGND VGND VPWR VPWR sky130_fd_sc_hd__fill_2
XFILLER_21_93 VGND VGND VPWR VPWR sky130_fd_sc_hd__fill_2
XFILLER_21_82 VGND VGND VPWR VPWR sky130_fd_sc_hd__fill_2
XFILLER_21_71 VGND VGND VPWR VPWR sky130_fd_sc_hd__fill_2
XPHY_2 VGND VGND VPWR VPWR sky130_fd_sc_hd__decap_3
XFILLER_7_62 VGND VGND VPWR VPWR sky130_fd_sc_hd__fill_1
Xmem_right_ipin_0.sky130_fd_sc_hd__dfxtp_1_2_ mux_right_ipin_0.mux_l2_in_0_/S mux_right_ipin_0.mux_l3_in_0_/S
+ clkbuf_3_4_0_prog_clk/X VGND VGND VPWR VPWR sky130_fd_sc_hd__dfxtp_1
XFILLER_12_29 VGND VGND VPWR VPWR sky130_fd_sc_hd__fill_2
XFILLER_23_28 VGND VGND VPWR VPWR sky130_fd_sc_hd__fill_2
XFILLER_13_94 VGND VGND VPWR VPWR sky130_fd_sc_hd__fill_2
X_41_ chany_top_in[12] chany_bottom_out[12] VGND VGND VPWR VPWR sky130_fd_sc_hd__buf_2
Xmem_right_ipin_6.sky130_fd_sc_hd__dfxtp_1_3_ mux_right_ipin_6.mux_l3_in_0_/S mux_right_ipin_6.mux_l4_in_0_/S
+ clkbuf_3_5_0_prog_clk/X VGND VGND VPWR VPWR sky130_fd_sc_hd__dfxtp_1
XFILLER_24_60 VGND VGND VPWR VPWR sky130_fd_sc_hd__fill_2
XFILLER_20_29 VGND VGND VPWR VPWR sky130_fd_sc_hd__fill_2
XFILLER_20_18 VGND VGND VPWR VPWR sky130_fd_sc_hd__fill_2
X_24_ _24_/HI _24_/LO VGND VGND VPWR VPWR sky130_fd_sc_hd__conb_1
Xmem_right_ipin_3.sky130_fd_sc_hd__dfxtp_1_2_ mux_right_ipin_3.mux_l2_in_0_/S mux_right_ipin_3.mux_l3_in_0_/S
+ clkbuf_3_5_0_prog_clk/X VGND VGND VPWR VPWR sky130_fd_sc_hd__dfxtp_1
Xmux_right_ipin_12.mux_l1_in_0_ chany_top_in[1] chany_bottom_in[1] mux_right_ipin_12.mux_l1_in_0_/S
+ mux_right_ipin_12.mux_l1_in_0_/X VGND VGND VPWR VPWR sky130_fd_sc_hd__mux2_1
XPHY_112 VGND VPWR sky130_fd_sc_hd__tapvpwrvgnd_1
XPHY_101 VGND VPWR sky130_fd_sc_hd__tapvpwrvgnd_1
XPHY_3 VGND VGND VPWR VPWR sky130_fd_sc_hd__decap_3
XFILLER_7_41 VGND VGND VPWR VPWR sky130_fd_sc_hd__fill_2
XFILLER_21_120 VGND VGND VPWR VPWR sky130_fd_sc_hd__fill_2
Xmem_right_ipin_0.sky130_fd_sc_hd__dfxtp_1_1_ mux_right_ipin_0.mux_l1_in_2_/S mux_right_ipin_0.mux_l2_in_0_/S
+ clkbuf_3_4_0_prog_clk/X VGND VGND VPWR VPWR sky130_fd_sc_hd__dfxtp_1
Xmem_right_ipin_9.sky130_fd_sc_hd__dfxtp_1_3_ mux_right_ipin_9.mux_l3_in_0_/S mux_right_ipin_9.mux_l4_in_0_/S
+ clkbuf_3_2_0_prog_clk/X VGND VGND VPWR VPWR sky130_fd_sc_hd__dfxtp_1
Xmem_right_ipin_11.sky130_fd_sc_hd__dfxtp_1_3_ mux_right_ipin_11.mux_l3_in_1_/S mux_right_ipin_11.mux_l4_in_0_/S
+ clkbuf_3_6_0_prog_clk/X VGND VGND VPWR VPWR sky130_fd_sc_hd__dfxtp_1
XFILLER_13_73 VGND VGND VPWR VPWR sky130_fd_sc_hd__fill_2
XFILLER_13_62 VGND VGND VPWR VPWR sky130_fd_sc_hd__fill_2
X_40_ chany_top_in[13] chany_bottom_out[13] VGND VGND VPWR VPWR sky130_fd_sc_hd__buf_2
XFILLER_18_29 VGND VGND VPWR VPWR sky130_fd_sc_hd__fill_2
XFILLER_18_18 VGND VGND VPWR VPWR sky130_fd_sc_hd__fill_2
Xmem_right_ipin_6.sky130_fd_sc_hd__dfxtp_1_2_ mux_right_ipin_6.mux_l2_in_1_/S mux_right_ipin_6.mux_l3_in_0_/S
+ clkbuf_3_1_0_prog_clk/X VGND VGND VPWR VPWR sky130_fd_sc_hd__dfxtp_1
XFILLER_24_50 VGND VGND VPWR VPWR sky130_fd_sc_hd__fill_1
Xmux_right_ipin_4.mux_l2_in_3_ _32_/HI chany_top_in[15] mux_right_ipin_4.mux_l2_in_2_/S
+ mux_right_ipin_4.mux_l2_in_3_/X VGND VGND VPWR VPWR sky130_fd_sc_hd__mux2_1
X_23_ _23_/HI _23_/LO VGND VGND VPWR VPWR sky130_fd_sc_hd__conb_1
Xmem_right_ipin_3.sky130_fd_sc_hd__dfxtp_1_1_ mux_right_ipin_3.mux_l1_in_0_/S mux_right_ipin_3.mux_l2_in_0_/S
+ clkbuf_3_0_0_prog_clk/X VGND VGND VPWR VPWR sky130_fd_sc_hd__dfxtp_1
XPHY_113 VGND VPWR sky130_fd_sc_hd__tapvpwrvgnd_1
XPHY_102 VGND VPWR sky130_fd_sc_hd__tapvpwrvgnd_1
XPHY_4 VGND VGND VPWR VPWR sky130_fd_sc_hd__decap_3
XFILLER_7_97 VGND VGND VPWR VPWR sky130_fd_sc_hd__fill_2
Xmux_right_ipin_4.mux_l4_in_0_ mux_right_ipin_4.mux_l3_in_1_/X mux_right_ipin_4.mux_l3_in_0_/X
+ mux_right_ipin_4.mux_l4_in_0_/S mux_right_ipin_4.mux_l4_in_0_/X VGND VGND VPWR VPWR
+ sky130_fd_sc_hd__mux2_1
Xmem_right_ipin_0.sky130_fd_sc_hd__dfxtp_1_0_ mux_left_ipin_0.mux_l4_in_0_/S mux_right_ipin_0.mux_l1_in_2_/S
+ clkbuf_3_4_0_prog_clk/X VGND VGND VPWR VPWR sky130_fd_sc_hd__dfxtp_1
XFILLER_16_51 VGND VGND VPWR VPWR sky130_fd_sc_hd__fill_2
Xmem_right_ipin_14.sky130_fd_sc_hd__dfxtp_1_3_ mux_right_ipin_14.mux_l3_in_1_/S mux_right_ipin_14.mux_l4_in_0_/S
+ clkbuf_3_3_0_prog_clk/X VGND VGND VPWR VPWR sky130_fd_sc_hd__dfxtp_1
XFILLER_12_154 VGND VGND VPWR VPWR sky130_fd_sc_hd__decap_3
Xmem_right_ipin_9.sky130_fd_sc_hd__dfxtp_1_2_ mux_right_ipin_9.mux_l2_in_1_/S mux_right_ipin_9.mux_l3_in_0_/S
+ clkbuf_3_2_0_prog_clk/X VGND VGND VPWR VPWR sky130_fd_sc_hd__dfxtp_1
Xmux_right_ipin_9.mux_l2_in_3_ _20_/HI chany_top_in[14] mux_right_ipin_9.mux_l2_in_1_/S
+ mux_right_ipin_9.mux_l2_in_3_/X VGND VGND VPWR VPWR sky130_fd_sc_hd__mux2_1
Xclkbuf_3_1_0_prog_clk clkbuf_3_0_0_prog_clk/A clkbuf_3_1_0_prog_clk/X VGND VGND VPWR
+ VPWR sky130_fd_sc_hd__clkbuf_1
Xmux_right_ipin_4.mux_l3_in_1_ mux_right_ipin_4.mux_l2_in_3_/X mux_right_ipin_4.mux_l2_in_2_/X
+ mux_right_ipin_4.mux_l3_in_1_/S mux_right_ipin_4.mux_l3_in_1_/X VGND VGND VPWR VPWR
+ sky130_fd_sc_hd__mux2_1
XFILLER_4_32 VGND VGND VPWR VPWR sky130_fd_sc_hd__fill_1
Xmem_right_ipin_11.sky130_fd_sc_hd__dfxtp_1_2_ mux_right_ipin_11.mux_l2_in_2_/S mux_right_ipin_11.mux_l3_in_1_/S
+ clkbuf_3_7_0_prog_clk/X VGND VGND VPWR VPWR sky130_fd_sc_hd__dfxtp_1
XFILLER_13_41 VGND VGND VPWR VPWR sky130_fd_sc_hd__fill_2
XFILLER_1_120 VGND VGND VPWR VPWR sky130_fd_sc_hd__fill_2
Xmem_right_ipin_6.sky130_fd_sc_hd__dfxtp_1_1_ mux_right_ipin_6.mux_l1_in_0_/S mux_right_ipin_6.mux_l2_in_1_/S
+ clkbuf_3_4_0_prog_clk/X VGND VGND VPWR VPWR sky130_fd_sc_hd__dfxtp_1
Xmux_right_ipin_4.mux_l2_in_2_ chany_bottom_in[15] chany_top_in[9] mux_right_ipin_4.mux_l2_in_2_/S
+ mux_right_ipin_4.mux_l2_in_2_/X VGND VGND VPWR VPWR sky130_fd_sc_hd__mux2_1
X_22_ _22_/HI _22_/LO VGND VGND VPWR VPWR sky130_fd_sc_hd__conb_1
Xmux_right_ipin_9.mux_l4_in_0_ mux_right_ipin_9.mux_l3_in_1_/X mux_right_ipin_9.mux_l3_in_0_/X
+ mux_right_ipin_9.mux_l4_in_0_/S mux_right_ipin_9.mux_l4_in_0_/X VGND VGND VPWR VPWR
+ sky130_fd_sc_hd__mux2_1
Xmem_right_ipin_3.sky130_fd_sc_hd__dfxtp_1_0_ mux_right_ipin_2.mux_l4_in_0_/S mux_right_ipin_3.mux_l1_in_0_/S
+ clkbuf_3_0_0_prog_clk/X VGND VGND VPWR VPWR sky130_fd_sc_hd__dfxtp_1
XFILLER_18_3 VGND VGND VPWR VPWR sky130_fd_sc_hd__decap_3
XPHY_114 VGND VPWR sky130_fd_sc_hd__tapvpwrvgnd_1
XPHY_103 VGND VPWR sky130_fd_sc_hd__tapvpwrvgnd_1
Xmux_right_ipin_9.mux_l3_in_1_ mux_right_ipin_9.mux_l2_in_3_/X mux_right_ipin_9.mux_l2_in_2_/X
+ mux_right_ipin_9.mux_l3_in_0_/S mux_right_ipin_9.mux_l3_in_1_/X VGND VGND VPWR VPWR
+ sky130_fd_sc_hd__mux2_1
XPHY_5 VGND VGND VPWR VPWR sky130_fd_sc_hd__decap_3
Xmem_right_ipin_14.sky130_fd_sc_hd__dfxtp_1_2_ mux_right_ipin_14.mux_l2_in_1_/S mux_right_ipin_14.mux_l3_in_1_/S
+ clkbuf_3_3_0_prog_clk/X VGND VGND VPWR VPWR sky130_fd_sc_hd__dfxtp_1
XFILLER_8_148 VGND VGND VPWR VPWR sky130_fd_sc_hd__fill_2
Xmem_right_ipin_9.sky130_fd_sc_hd__dfxtp_1_1_ mux_right_ipin_9.mux_l1_in_0_/S mux_right_ipin_9.mux_l2_in_1_/S
+ clkbuf_3_7_0_prog_clk/X VGND VGND VPWR VPWR sky130_fd_sc_hd__dfxtp_1
Xmux_right_ipin_9.mux_l2_in_2_ chany_bottom_in[14] chany_top_in[6] mux_right_ipin_9.mux_l2_in_1_/S
+ mux_right_ipin_9.mux_l2_in_2_/X VGND VGND VPWR VPWR sky130_fd_sc_hd__mux2_1
XFILLER_5_107 VGND VGND VPWR VPWR sky130_fd_sc_hd__fill_2
XFILLER_5_118 VGND VGND VPWR VPWR sky130_fd_sc_hd__decap_4
Xmux_right_ipin_4.mux_l3_in_0_ mux_right_ipin_4.mux_l2_in_1_/X mux_right_ipin_4.mux_l2_in_0_/X
+ mux_right_ipin_4.mux_l3_in_1_/S mux_right_ipin_4.mux_l3_in_0_/X VGND VGND VPWR VPWR
+ sky130_fd_sc_hd__mux2_1
XFILLER_4_77 VGND VGND VPWR VPWR sky130_fd_sc_hd__fill_2
XFILLER_4_88 VGND VGND VPWR VPWR sky130_fd_sc_hd__decap_4
Xmem_right_ipin_11.sky130_fd_sc_hd__dfxtp_1_1_ mux_right_ipin_11.mux_l1_in_1_/S mux_right_ipin_11.mux_l2_in_2_/S
+ clkbuf_3_2_0_prog_clk/X VGND VGND VPWR VPWR sky130_fd_sc_hd__dfxtp_1
XFILLER_1_132 VGND VGND VPWR VPWR sky130_fd_sc_hd__fill_2
Xmem_right_ipin_6.sky130_fd_sc_hd__dfxtp_1_0_ mux_right_ipin_5.mux_l4_in_0_/S mux_right_ipin_6.mux_l1_in_0_/S
+ clkbuf_3_1_0_prog_clk/X VGND VGND VPWR VPWR sky130_fd_sc_hd__dfxtp_1
XFILLER_24_85 VGND VGND VPWR VPWR sky130_fd_sc_hd__fill_2
XFILLER_24_74 VGND VGND VPWR VPWR sky130_fd_sc_hd__fill_2
XFILLER_24_63 VGND VGND VPWR VPWR sky130_fd_sc_hd__fill_2
X_21_ _21_/HI _21_/LO VGND VGND VPWR VPWR sky130_fd_sc_hd__conb_1
Xmux_right_ipin_4.mux_l2_in_1_ chany_bottom_in[9] mux_right_ipin_4.mux_l1_in_2_/X
+ mux_right_ipin_4.mux_l2_in_2_/S mux_right_ipin_4.mux_l2_in_1_/X VGND VGND VPWR VPWR
+ sky130_fd_sc_hd__mux2_1
XFILLER_19_117 VGND VGND VPWR VPWR sky130_fd_sc_hd__fill_2
Xmux_right_ipin_15.sky130_fd_sc_hd__buf_4_0_ mux_right_ipin_15.mux_l4_in_0_/X left_grid_pin_31_
+ VGND VGND VPWR VPWR sky130_fd_sc_hd__buf_4
XPHY_115 VGND VPWR sky130_fd_sc_hd__tapvpwrvgnd_1
XPHY_104 VGND VPWR sky130_fd_sc_hd__tapvpwrvgnd_1
Xmux_right_ipin_13.mux_l2_in_3_ _27_/HI chany_top_in[18] mux_right_ipin_13.mux_l2_in_1_/S
+ mux_right_ipin_13.mux_l2_in_3_/X VGND VGND VPWR VPWR sky130_fd_sc_hd__mux2_1
XFILLER_16_109 VGND VGND VPWR VPWR sky130_fd_sc_hd__fill_2
Xmux_right_ipin_4.mux_l1_in_2_ chany_top_in[5] chany_bottom_in[5] mux_right_ipin_4.mux_l1_in_0_/S
+ mux_right_ipin_4.mux_l1_in_2_/X VGND VGND VPWR VPWR sky130_fd_sc_hd__mux2_1
Xmux_right_ipin_7.sky130_fd_sc_hd__buf_4_0_ mux_right_ipin_7.mux_l4_in_0_/X left_grid_pin_23_
+ VGND VGND VPWR VPWR sky130_fd_sc_hd__buf_4
Xmux_right_ipin_9.mux_l3_in_0_ mux_right_ipin_9.mux_l2_in_1_/X mux_right_ipin_9.mux_l2_in_0_/X
+ mux_right_ipin_9.mux_l3_in_0_/S mux_right_ipin_9.mux_l3_in_0_/X VGND VGND VPWR VPWR
+ sky130_fd_sc_hd__mux2_1
XPHY_6 VGND VGND VPWR VPWR sky130_fd_sc_hd__decap_3
Xmem_right_ipin_14.sky130_fd_sc_hd__dfxtp_1_1_ mux_right_ipin_14.mux_l1_in_0_/S mux_right_ipin_14.mux_l2_in_1_/S
+ clkbuf_3_2_0_prog_clk/X VGND VGND VPWR VPWR sky130_fd_sc_hd__dfxtp_1
XFILLER_12_145 VGND VGND VPWR VPWR sky130_fd_sc_hd__fill_2
Xmem_right_ipin_9.sky130_fd_sc_hd__dfxtp_1_0_ mux_right_ipin_8.mux_l4_in_0_/S mux_right_ipin_9.mux_l1_in_0_/S
+ clkbuf_3_7_0_prog_clk/X VGND VGND VPWR VPWR sky130_fd_sc_hd__dfxtp_1
Xmux_right_ipin_9.mux_l2_in_1_ chany_bottom_in[6] chany_top_in[2] mux_right_ipin_9.mux_l2_in_1_/S
+ mux_right_ipin_9.mux_l2_in_1_/X VGND VGND VPWR VPWR sky130_fd_sc_hd__mux2_1
Xmux_right_ipin_13.mux_l4_in_0_ mux_right_ipin_13.mux_l3_in_1_/X mux_right_ipin_13.mux_l3_in_0_/X
+ mux_right_ipin_13.mux_l4_in_0_/S mux_right_ipin_13.mux_l4_in_0_/X VGND VGND VPWR
+ VPWR sky130_fd_sc_hd__mux2_1
XFILLER_4_152 VGND VGND VPWR VPWR sky130_fd_sc_hd__fill_1
Xmem_right_ipin_11.sky130_fd_sc_hd__dfxtp_1_0_ mux_right_ipin_10.mux_l4_in_0_/S mux_right_ipin_11.mux_l1_in_1_/S
+ clkbuf_3_2_0_prog_clk/X VGND VGND VPWR VPWR sky130_fd_sc_hd__dfxtp_1
XFILLER_1_144 VGND VGND VPWR VPWR sky130_fd_sc_hd__fill_2
XFILLER_8_3 VGND VGND VPWR VPWR sky130_fd_sc_hd__fill_2