* NGSPICE file created from cby_3__1_.ext - technology: EFS8A

* Black-box entry subcircuit for scs8hd_diode_2 abstract view
.subckt scs8hd_diode_2 DIODE vgnd vpwr
.ends

* Black-box entry subcircuit for scs8hd_decap_8 abstract view
.subckt scs8hd_decap_8 vgnd vpwr
.ends

* Black-box entry subcircuit for scs8hd_fill_2 abstract view
.subckt scs8hd_fill_2 vpwr vgnd
.ends

* Black-box entry subcircuit for scs8hd_ebufn_2 abstract view
.subckt scs8hd_ebufn_2 A TEB Z vgnd vpwr
.ends

* Black-box entry subcircuit for scs8hd_decap_6 abstract view
.subckt scs8hd_decap_6 vgnd vpwr
.ends

* Black-box entry subcircuit for scs8hd_conb_1 abstract view
.subckt scs8hd_conb_1 HI LO vgnd vpwr
.ends

* Black-box entry subcircuit for scs8hd_nor2_4 abstract view
.subckt scs8hd_nor2_4 A B Y vgnd vpwr
.ends

* Black-box entry subcircuit for scs8hd_decap_4 abstract view
.subckt scs8hd_decap_4 vgnd vpwr
.ends

* Black-box entry subcircuit for scs8hd_inv_1 abstract view
.subckt scs8hd_inv_1 A Y vgnd vpwr
.ends

* Black-box entry subcircuit for scs8hd_inv_8 abstract view
.subckt scs8hd_inv_8 A Y vgnd vpwr
.ends

* Black-box entry subcircuit for scs8hd_lpflow_inputisolatch_1 abstract view
.subckt scs8hd_lpflow_inputisolatch_1 D Q SLEEPB vgnd vpwr
.ends

* Black-box entry subcircuit for scs8hd_decap_3 abstract view
.subckt scs8hd_decap_3 vgnd vpwr
.ends

* Black-box entry subcircuit for scs8hd_decap_12 abstract view
.subckt scs8hd_decap_12 vgnd vpwr
.ends

* Black-box entry subcircuit for scs8hd_or3_4 abstract view
.subckt scs8hd_or3_4 A B C X vgnd vpwr
.ends

* Black-box entry subcircuit for scs8hd_fill_1 abstract view
.subckt scs8hd_fill_1 vgnd vpwr
.ends

* Black-box entry subcircuit for scs8hd_tapvpwrvgnd_1 abstract view
.subckt scs8hd_tapvpwrvgnd_1 vgnd vpwr
.ends

* Black-box entry subcircuit for scs8hd_or4_4 abstract view
.subckt scs8hd_or4_4 A B C D X vgnd vpwr
.ends

* Black-box entry subcircuit for scs8hd_or2_4 abstract view
.subckt scs8hd_or2_4 A B X vgnd vpwr
.ends

* Black-box entry subcircuit for scs8hd_buf_2 abstract view
.subckt scs8hd_buf_2 A X vgnd vpwr
.ends

* Black-box entry subcircuit for scs8hd_nor3_4 abstract view
.subckt scs8hd_nor3_4 A B C Y vgnd vpwr
.ends

* Black-box entry subcircuit for scs8hd_nand2_4 abstract view
.subckt scs8hd_nand2_4 A B Y vgnd vpwr
.ends

.subckt cby_3__1_ address[0] address[1] address[2] address[3] address[4] address[5]
+ address[6] chany_bottom_in[0] chany_bottom_in[1] chany_bottom_in[2] chany_bottom_in[3]
+ chany_bottom_in[4] chany_bottom_in[5] chany_bottom_in[6] chany_bottom_in[7] chany_bottom_in[8]
+ chany_bottom_out[0] chany_bottom_out[1] chany_bottom_out[2] chany_bottom_out[3]
+ chany_bottom_out[4] chany_bottom_out[5] chany_bottom_out[6] chany_bottom_out[7]
+ chany_bottom_out[8] chany_top_in[0] chany_top_in[1] chany_top_in[2] chany_top_in[3]
+ chany_top_in[4] chany_top_in[5] chany_top_in[6] chany_top_in[7] chany_top_in[8]
+ chany_top_out[0] chany_top_out[1] chany_top_out[2] chany_top_out[3] chany_top_out[4]
+ chany_top_out[5] chany_top_out[6] chany_top_out[7] chany_top_out[8] data_in enable
+ left_grid_pin_1_ left_grid_pin_5_ left_grid_pin_9_ right_grid_pin_0_ right_grid_pin_10_
+ right_grid_pin_12_ right_grid_pin_14_ right_grid_pin_2_ right_grid_pin_4_ right_grid_pin_6_
+ right_grid_pin_8_ vpwr vgnd
XANTENNA_mux_left_ipin_5.mux_l2_in_0_.TGATE_0_.scs8hd_ebufn_2_TEB mem_left_ipin_5.LATCH_3_.latch/Q
+ vgnd vpwr scs8hd_diode_2
XANTENNA__113__B _114_/B vgnd vpwr scs8hd_diode_2
XFILLER_27_203 vgnd vpwr scs8hd_decap_8
XANTENNA__108__B _108_/B vgnd vpwr scs8hd_diode_2
XANTENNA__124__A _055_/D vgnd vpwr scs8hd_diode_2
XFILLER_5_195 vpwr vgnd scs8hd_fill_2
Xmux_right_ipin_0.mux_l1_in_0_.TGATE_2_.scs8hd_ebufn_2 mux_right_ipin_0.INVTX1_2_.scs8hd_inv_1/Y
+ mem_right_ipin_0.LATCH_2_.latch/Q mux_right_ipin_0.mux_l1_in_0_.TGATE_0_.scs8hd_ebufn_2/Z
+ vgnd vpwr scs8hd_ebufn_2
Xmux_left_ipin_6.mux_l2_in_0_.TGATE_1_.scs8hd_ebufn_2 mux_left_ipin_6.mux_l2_in_0_.TGATE_1_.scs8hd_ebufn_2/A
+ mem_left_ipin_6.LATCH_4_.latch/Q mux_left_ipin_6.tap_buf4_0_.scs8hd_inv_1/A vgnd
+ vpwr scs8hd_ebufn_2
XANTENNA_mem_left_ipin_0.LATCH_1_.latch_SLEEPB _115_/Y vgnd vpwr scs8hd_diode_2
XANTENNA_mux_left_ipin_0.mux_l2_in_0_.TGATE_0_.scs8hd_ebufn_2_TEB mem_left_ipin_0.LATCH_3_.latch/Q
+ vgnd vpwr scs8hd_diode_2
XANTENNA_mux_right_ipin_1.mux_l2_in_0_.TGATE_1_.scs8hd_ebufn_2_TEB _043_/Y vgnd vpwr
+ scs8hd_diode_2
XFILLER_15_206 vgnd vpwr scs8hd_decap_6
X_131_ _131_/HI _131_/LO vgnd vpwr scs8hd_conb_1
X_062_ _055_/X _080_/A _062_/Y vgnd vpwr scs8hd_nor2_4
XFILLER_2_121 vgnd vpwr scs8hd_decap_4
XANTENNA__110__C address[3] vgnd vpwr scs8hd_diode_2
Xmux_left_ipin_4.INVTX1_1_.scs8hd_inv_1 chany_top_in[3] mux_left_ipin_4.INVTX1_1_.scs8hd_inv_1/Y
+ vgnd vpwr scs8hd_inv_1
XANTENNA__119__A _078_/A vgnd vpwr scs8hd_diode_2
X_114_ _080_/A _114_/B _114_/Y vgnd vpwr scs8hd_nor2_4
X_045_ _045_/A _045_/Y vgnd vpwr scs8hd_inv_8
XANTENNA_mux_left_ipin_4.mux_l1_in_1_.TGATE_2_.scs8hd_ebufn_2_A mux_left_ipin_4.INVTX1_5_.scs8hd_inv_1/Y
+ vgnd vpwr scs8hd_diode_2
XANTENNA__121__B _123_/B vgnd vpwr scs8hd_diode_2
XFILLER_22_7 vgnd vpwr scs8hd_decap_4
Xmux_left_ipin_5.INVTX1_5_.scs8hd_inv_1 chany_top_in[5] mux_left_ipin_5.INVTX1_5_.scs8hd_inv_1/Y
+ vgnd vpwr scs8hd_inv_1
Xmem_right_ipin_2.LATCH_1_.latch data_in _045_/A _108_/Y vgnd vpwr scs8hd_lpflow_inputisolatch_1
XFILLER_20_10 vpwr vgnd scs8hd_fill_2
Xmux_left_ipin_2.mux_l1_in_1_.TGATE_1_.scs8hd_ebufn_2 mux_left_ipin_2.INVTX1_4_.scs8hd_inv_1/Y
+ mem_left_ipin_2.LATCH_1_.latch/Q mux_left_ipin_2.mux_l1_in_1_.TGATE_1_.scs8hd_ebufn_2/Z
+ vgnd vpwr scs8hd_ebufn_2
XANTENNA__116__B _114_/B vgnd vpwr scs8hd_diode_2
XFILLER_6_45 vpwr vgnd scs8hd_fill_2
XFILLER_6_56 vpwr vgnd scs8hd_fill_2
XFILLER_13_3 vgnd vpwr scs8hd_decap_3
XFILLER_19_172 vpwr vgnd scs8hd_fill_2
XANTENNA__042__A address[0] vgnd vpwr scs8hd_diode_2
XFILLER_1_208 vgnd vpwr scs8hd_decap_4
XFILLER_15_32 vpwr vgnd scs8hd_fill_2
XFILLER_31_75 vgnd vpwr scs8hd_decap_12
XFILLER_31_156 vgnd vpwr scs8hd_decap_12
XFILLER_31_112 vpwr vgnd scs8hd_fill_2
XFILLER_31_101 vpwr vgnd scs8hd_fill_2
XFILLER_16_120 vgnd vpwr scs8hd_decap_3
XANTENNA__127__A _079_/A vgnd vpwr scs8hd_diode_2
XFILLER_22_167 vgnd vpwr scs8hd_decap_4
XANTENNA_mux_left_ipin_0.mux_l1_in_1_.TGATE_0_.scs8hd_ebufn_2_A mux_left_ipin_0.INVTX1_3_.scs8hd_inv_1/Y
+ vgnd vpwr scs8hd_diode_2
XFILLER_3_57 vpwr vgnd scs8hd_fill_2
XANTENNA_mem_left_ipin_7.LATCH_0_.latch_SLEEPB _097_/Y vgnd vpwr scs8hd_diode_2
Xmux_left_ipin_6.mux_l1_in_1_.TGATE_2_.scs8hd_ebufn_2 mux_left_ipin_6.INVTX1_5_.scs8hd_inv_1/Y
+ mem_left_ipin_6.LATCH_2_.latch/Q mux_left_ipin_6.mux_l2_in_0_.TGATE_1_.scs8hd_ebufn_2/A
+ vgnd vpwr scs8hd_ebufn_2
XANTENNA_mux_left_ipin_5.mux_l2_in_0_.TGATE_2_.scs8hd_ebufn_2_A _136_/HI vgnd vpwr
+ scs8hd_diode_2
XFILLER_18_204 vgnd vpwr scs8hd_decap_8
XANTENNA__108__C _053_/C vgnd vpwr scs8hd_diode_2
XFILLER_5_130 vpwr vgnd scs8hd_fill_2
XANTENNA__124__B _084_/B vgnd vpwr scs8hd_diode_2
XANTENNA__050__A address[6] vgnd vpwr scs8hd_diode_2
XANTENNA_mux_left_ipin_1.mux_l1_in_0_.TGATE_2_.scs8hd_ebufn_2_A mux_left_ipin_1.INVTX1_2_.scs8hd_inv_1/Y
+ vgnd vpwr scs8hd_diode_2
Xmux_left_ipin_4.mux_l1_in_0_.TGATE_0_.scs8hd_ebufn_2 mux_left_ipin_4.INVTX1_0_.scs8hd_inv_1/Y
+ mem_left_ipin_4.LATCH_0_.latch/Q mux_left_ipin_4.mux_l1_in_0_.TGATE_2_.scs8hd_ebufn_2/Z
+ vgnd vpwr scs8hd_ebufn_2
Xmem_left_ipin_1.LATCH_5_.latch data_in mem_left_ipin_1.LATCH_5_.latch/Q _118_/Y vgnd
+ vpwr scs8hd_lpflow_inputisolatch_1
X_130_ _090_/A _130_/B _130_/Y vgnd vpwr scs8hd_nor2_4
X_061_ _047_/Y address[2] address[0] _080_/A vgnd vpwr scs8hd_or3_4
XANTENNA__110__D _055_/D vgnd vpwr scs8hd_diode_2
XFILLER_2_188 vpwr vgnd scs8hd_fill_2
XFILLER_0_36 vpwr vgnd scs8hd_fill_2
XFILLER_0_58 vpwr vgnd scs8hd_fill_2
XANTENNA__119__B _123_/B vgnd vpwr scs8hd_diode_2
XANTENNA__045__A _045_/A vgnd vpwr scs8hd_diode_2
XANTENNA_mux_left_ipin_1.INVTX1_4_.scs8hd_inv_1_A chany_bottom_in[5] vgnd vpwr scs8hd_diode_2
XANTENNA_mem_right_ipin_0.LATCH_5_.latch_D data_in vgnd vpwr scs8hd_diode_2
XFILLER_18_10 vpwr vgnd scs8hd_fill_2
XFILLER_18_43 vpwr vgnd scs8hd_fill_2
Xmux_left_ipin_1.mux_l2_in_0_.TGATE_0_.scs8hd_ebufn_2 mux_left_ipin_1.mux_l1_in_0_.TGATE_2_.scs8hd_ebufn_2/Z
+ mem_left_ipin_1.LATCH_3_.latch/Q mux_left_ipin_1.tap_buf4_0_.scs8hd_inv_1/A vgnd
+ vpwr scs8hd_ebufn_2
XFILLER_7_203 vpwr vgnd scs8hd_fill_2
XFILLER_11_210 vpwr vgnd scs8hd_fill_2
X_113_ _079_/A _114_/B _113_/Y vgnd vpwr scs8hd_nor2_4
X_044_ _044_/A _044_/Y vgnd vpwr scs8hd_inv_8
XANTENNA_mem_right_ipin_2.LATCH_1_.latch_D data_in vgnd vpwr scs8hd_diode_2
XANTENNA_mux_left_ipin_5.INVTX1_5_.scs8hd_inv_1_A chany_top_in[5] vgnd vpwr scs8hd_diode_2
XANTENNA_mux_left_ipin_1.mux_l2_in_0_.TGATE_0_.scs8hd_ebufn_2_A mux_left_ipin_1.mux_l1_in_0_.TGATE_2_.scs8hd_ebufn_2/Z
+ vgnd vpwr scs8hd_diode_2
XANTENNA_mem_left_ipin_5.LATCH_1_.latch_SLEEPB _081_/Y vgnd vpwr scs8hd_diode_2
Xmux_left_ipin_2.INVTX1_1_.scs8hd_inv_1 chany_top_in[1] mux_left_ipin_2.INVTX1_1_.scs8hd_inv_1/Y
+ vgnd vpwr scs8hd_inv_1
XANTENNA_mux_right_ipin_0.INVTX1_2_.scs8hd_inv_1_A chany_bottom_in[7] vgnd vpwr scs8hd_diode_2
XFILLER_20_66 vpwr vgnd scs8hd_fill_2
XFILLER_20_88 vpwr vgnd scs8hd_fill_2
XFILLER_29_97 vgnd vpwr scs8hd_fill_1
XFILLER_29_75 vgnd vpwr scs8hd_decap_6
XFILLER_28_151 vpwr vgnd scs8hd_fill_2
XFILLER_19_140 vpwr vgnd scs8hd_fill_2
XFILLER_19_184 vgnd vpwr scs8hd_decap_4
Xmux_left_ipin_3.INVTX1_5_.scs8hd_inv_1 chany_top_in[7] mux_left_ipin_3.INVTX1_5_.scs8hd_inv_1/Y
+ vgnd vpwr scs8hd_inv_1
XFILLER_25_143 vpwr vgnd scs8hd_fill_2
XFILLER_25_121 vgnd vpwr scs8hd_fill_1
XFILLER_31_32 vgnd vpwr scs8hd_decap_12
XFILLER_31_87 vgnd vpwr scs8hd_decap_6
Xmux_left_ipin_5.mux_l2_in_0_.TGATE_1_.scs8hd_ebufn_2 mux_left_ipin_5.mux_l1_in_1_.TGATE_2_.scs8hd_ebufn_2/Z
+ mem_left_ipin_5.LATCH_4_.latch/Q mux_left_ipin_5.tap_buf4_0_.scs8hd_inv_1/A vgnd
+ vpwr scs8hd_ebufn_2
XFILLER_31_168 vgnd vpwr scs8hd_decap_12
XPHY_160 vgnd vpwr scs8hd_tapvpwrvgnd_1
XANTENNA__127__B _130_/B vgnd vpwr scs8hd_diode_2
XANTENNA__143__A chany_top_in[7] vgnd vpwr scs8hd_diode_2
XFILLER_22_102 vpwr vgnd scs8hd_fill_2
XFILLER_22_146 vgnd vpwr scs8hd_decap_6
XANTENNA_mem_left_ipin_0.LATCH_2_.latch_D data_in vgnd vpwr scs8hd_diode_2
XANTENNA__053__A address[1] vgnd vpwr scs8hd_diode_2
XFILLER_26_32 vgnd vpwr scs8hd_decap_12
XFILLER_13_102 vpwr vgnd scs8hd_fill_2
XFILLER_13_179 vpwr vgnd scs8hd_fill_2
XANTENNA_mem_left_ipin_1.LATCH_0_.latch_D data_in vgnd vpwr scs8hd_diode_2
XFILLER_3_36 vpwr vgnd scs8hd_fill_2
Xmem_left_ipin_2.LATCH_1_.latch data_in mem_left_ipin_2.LATCH_1_.latch/Q _129_/Y vgnd
+ vpwr scs8hd_lpflow_inputisolatch_1
XANTENNA_mux_left_ipin_4.tap_buf4_0_.scs8hd_inv_1_A mux_left_ipin_4.tap_buf4_0_.scs8hd_inv_1/A
+ vgnd vpwr scs8hd_diode_2
XFILLER_8_183 vgnd vpwr scs8hd_decap_6
XFILLER_10_105 vpwr vgnd scs8hd_fill_2
XANTENNA__048__A address[2] vgnd vpwr scs8hd_diode_2
XFILLER_6_109 vpwr vgnd scs8hd_fill_2
XFILLER_10_149 vpwr vgnd scs8hd_fill_2
XFILLER_12_12 vpwr vgnd scs8hd_fill_2
XFILLER_12_23 vpwr vgnd scs8hd_fill_2
XFILLER_12_45 vpwr vgnd scs8hd_fill_2
XANTENNA_mem_left_ipin_3.LATCH_2_.latch_SLEEPB _062_/Y vgnd vpwr scs8hd_diode_2
XANTENNA_mux_left_ipin_3.mux_l1_in_0_.TGATE_2_.scs8hd_ebufn_2_TEB mem_left_ipin_3.LATCH_2_.latch/Q
+ vgnd vpwr scs8hd_diode_2
XFILLER_5_164 vpwr vgnd scs8hd_fill_2
XFILLER_5_175 vpwr vgnd scs8hd_fill_2
Xmem_left_ipin_4.LATCH_4_.latch data_in mem_left_ipin_4.LATCH_4_.latch/Q _070_/Y vgnd
+ vpwr scs8hd_lpflow_inputisolatch_1
XANTENNA_mux_right_ipin_0.tap_buf4_0_.scs8hd_inv_1_A mux_right_ipin_0.tap_buf4_0_.scs8hd_inv_1/A
+ vgnd vpwr scs8hd_diode_2
Xmux_left_ipin_1.mux_l1_in_1_.TGATE_1_.scs8hd_ebufn_2 mux_left_ipin_1.INVTX1_4_.scs8hd_inv_1/Y
+ mem_left_ipin_1.LATCH_1_.latch/Q mux_left_ipin_1.mux_l1_in_1_.TGATE_2_.scs8hd_ebufn_2/Z
+ vgnd vpwr scs8hd_ebufn_2
XFILLER_23_11 vgnd vpwr scs8hd_decap_4
XFILLER_23_77 vpwr vgnd scs8hd_fill_2
XFILLER_23_88 vgnd vpwr scs8hd_decap_4
XFILLER_3_3 vgnd vpwr scs8hd_decap_3
XFILLER_2_101 vgnd vpwr scs8hd_decap_3
X_060_ _055_/X _079_/A _060_/Y vgnd vpwr scs8hd_nor2_4
XFILLER_2_167 vpwr vgnd scs8hd_fill_2
XFILLER_9_35 vgnd vpwr scs8hd_fill_1
XANTENNA_mux_left_ipin_3.INVTX1_2_.scs8hd_inv_1_A chany_bottom_in[3] vgnd vpwr scs8hd_diode_2
XFILLER_9_57 vpwr vgnd scs8hd_fill_2
XANTENNA_mux_left_ipin_6.mux_l1_in_1_.TGATE_2_.scs8hd_ebufn_2_TEB mem_left_ipin_6.LATCH_2_.latch/Q
+ vgnd vpwr scs8hd_diode_2
XANTENNA_mem_left_ipin_4.LATCH_4_.latch_D data_in vgnd vpwr scs8hd_diode_2
XANTENNA__151__A chany_bottom_in[8] vgnd vpwr scs8hd_diode_2
XANTENNA_mem_left_ipin_5.LATCH_2_.latch_D data_in vgnd vpwr scs8hd_diode_2
XANTENNA_mux_left_ipin_7.INVTX1_3_.scs8hd_inv_1_A chany_top_in[6] vgnd vpwr scs8hd_diode_2
XANTENNA__061__A _047_/Y vgnd vpwr scs8hd_diode_2
XANTENNA_mem_left_ipin_6.LATCH_0_.latch_D data_in vgnd vpwr scs8hd_diode_2
XFILLER_18_66 vgnd vpwr scs8hd_decap_8
X_043_ _043_/A _043_/Y vgnd vpwr scs8hd_inv_8
X_112_ _078_/A _114_/B _112_/Y vgnd vpwr scs8hd_nor2_4
Xmux_right_ipin_0.INVTX1_2_.scs8hd_inv_1 chany_bottom_in[7] mux_right_ipin_0.INVTX1_2_.scs8hd_inv_1/Y
+ vgnd vpwr scs8hd_inv_1
XANTENNA_mux_right_ipin_2.INVTX1_0_.scs8hd_inv_1_A chany_bottom_in[1] vgnd vpwr scs8hd_diode_2
Xmux_left_ipin_1.tap_buf4_0_.scs8hd_inv_1 mux_left_ipin_1.tap_buf4_0_.scs8hd_inv_1/A
+ right_grid_pin_2_ vgnd vpwr scs8hd_inv_1
XANTENNA_mux_left_ipin_5.mux_l1_in_1_.TGATE_2_.scs8hd_ebufn_2_A mux_left_ipin_5.INVTX1_5_.scs8hd_inv_1/Y
+ vgnd vpwr scs8hd_diode_2
XANTENNA__146__A chany_top_in[4] vgnd vpwr scs8hd_diode_2
XFILLER_1_80 vgnd vpwr scs8hd_decap_4
XANTENNA_mux_left_ipin_1.mux_l1_in_1_.TGATE_2_.scs8hd_ebufn_2_TEB mem_left_ipin_1.LATCH_2_.latch/Q
+ vgnd vpwr scs8hd_diode_2
XANTENNA__056__A _085_/A vgnd vpwr scs8hd_diode_2
XFILLER_20_23 vpwr vgnd scs8hd_fill_2
XFILLER_29_87 vpwr vgnd scs8hd_fill_2
Xmux_left_ipin_5.mux_l1_in_1_.TGATE_2_.scs8hd_ebufn_2 mux_left_ipin_5.INVTX1_5_.scs8hd_inv_1/Y
+ mem_left_ipin_5.LATCH_2_.latch/Q mux_left_ipin_5.mux_l1_in_1_.TGATE_2_.scs8hd_ebufn_2/Z
+ vgnd vpwr scs8hd_ebufn_2
XFILLER_6_69 vpwr vgnd scs8hd_fill_2
XANTENNA_mem_left_ipin_1.LATCH_3_.latch_SLEEPB _120_/Y vgnd vpwr scs8hd_diode_2
XFILLER_20_6 vpwr vgnd scs8hd_fill_2
XFILLER_25_199 vpwr vgnd scs8hd_fill_2
XFILLER_25_188 vgnd vpwr scs8hd_decap_8
XFILLER_25_100 vgnd vpwr scs8hd_decap_3
XANTENNA_mux_left_ipin_5.mux_l1_in_0_.TGATE_1_.scs8hd_ebufn_2_TEB mem_left_ipin_5.LATCH_1_.latch/Q
+ vgnd vpwr scs8hd_diode_2
XANTENNA_mem_right_ipin_1.LATCH_0_.latch_SLEEPB _107_/Y vgnd vpwr scs8hd_diode_2
XFILLER_31_44 vgnd vpwr scs8hd_decap_12
Xmux_left_ipin_0.INVTX1_1_.scs8hd_inv_1 chany_top_in[0] mux_left_ipin_0.INVTX1_1_.scs8hd_inv_1/Y
+ vgnd vpwr scs8hd_inv_1
XFILLER_31_125 vgnd vpwr scs8hd_decap_4
XPHY_161 vgnd vpwr scs8hd_tapvpwrvgnd_1
XPHY_150 vgnd vpwr scs8hd_tapvpwrvgnd_1
Xmux_left_ipin_3.mux_l1_in_0_.TGATE_0_.scs8hd_ebufn_2 mux_left_ipin_3.INVTX1_0_.scs8hd_inv_1/Y
+ mem_left_ipin_3.LATCH_0_.latch/Q mux_left_ipin_3.mux_l1_in_0_.TGATE_2_.scs8hd_ebufn_2/Z
+ vgnd vpwr scs8hd_ebufn_2
XANTENNA__053__B _048_/Y vgnd vpwr scs8hd_diode_2
Xmem_left_ipin_5.LATCH_0_.latch data_in mem_left_ipin_5.LATCH_0_.latch/Q _082_/Y vgnd
+ vpwr scs8hd_lpflow_inputisolatch_1
XFILLER_26_88 vpwr vgnd scs8hd_fill_2
XFILLER_26_77 vgnd vpwr scs8hd_fill_1
XFILLER_9_118 vpwr vgnd scs8hd_fill_2
XFILLER_13_114 vpwr vgnd scs8hd_fill_2
XFILLER_13_136 vpwr vgnd scs8hd_fill_2
Xmem_right_ipin_0.LATCH_4_.latch data_in mem_right_ipin_0.LATCH_4_.latch/Q _101_/Y
+ vgnd vpwr scs8hd_lpflow_inputisolatch_1
XANTENNA_mux_left_ipin_1.mux_l1_in_1_.TGATE_0_.scs8hd_ebufn_2_A mux_left_ipin_1.INVTX1_3_.scs8hd_inv_1/Y
+ vgnd vpwr scs8hd_diode_2
Xmux_left_ipin_1.INVTX1_5_.scs8hd_inv_1 chany_top_in[5] mux_left_ipin_1.INVTX1_5_.scs8hd_inv_1/Y
+ vgnd vpwr scs8hd_inv_1
XFILLER_3_15 vpwr vgnd scs8hd_fill_2
XANTENNA_mux_left_ipin_0.mux_l1_in_0_.TGATE_1_.scs8hd_ebufn_2_TEB mem_left_ipin_0.LATCH_1_.latch/Q
+ vgnd vpwr scs8hd_diode_2
XANTENNA__154__A chany_bottom_in[5] vgnd vpwr scs8hd_diode_2
XFILLER_8_151 vpwr vgnd scs8hd_fill_2
Xmux_left_ipin_0.mux_l2_in_0_.TGATE_0_.scs8hd_ebufn_2 mux_left_ipin_0.mux_l1_in_0_.TGATE_2_.scs8hd_ebufn_2/Z
+ mem_left_ipin_0.LATCH_3_.latch/Q mux_left_ipin_0.tap_buf4_0_.scs8hd_inv_1/A vgnd
+ vpwr scs8hd_ebufn_2
Xmem_left_ipin_7.LATCH_3_.latch data_in mem_left_ipin_7.LATCH_3_.latch/Q _094_/Y vgnd
+ vpwr scs8hd_lpflow_inputisolatch_1
XANTENNA__064__A _055_/X vgnd vpwr scs8hd_diode_2
XFILLER_12_79 vgnd vpwr scs8hd_decap_12
XANTENNA_mux_left_ipin_6.mux_l2_in_0_.TGATE_2_.scs8hd_ebufn_2_A _137_/HI vgnd vpwr
+ scs8hd_diode_2
XFILLER_5_143 vpwr vgnd scs8hd_fill_2
XANTENNA__149__A chany_top_in[1] vgnd vpwr scs8hd_diode_2
Xmux_left_ipin_7.INVTX1_2_.scs8hd_inv_1 chany_bottom_in[6] mux_left_ipin_7.INVTX1_2_.scs8hd_inv_1/Y
+ vgnd vpwr scs8hd_inv_1
XANTENNA_mux_left_ipin_2.mux_l1_in_0_.TGATE_2_.scs8hd_ebufn_2_A mux_left_ipin_2.INVTX1_2_.scs8hd_inv_1/Y
+ vgnd vpwr scs8hd_diode_2
Xmux_left_ipin_7.mux_l1_in_0_.TGATE_1_.scs8hd_ebufn_2 mux_left_ipin_7.INVTX1_1_.scs8hd_inv_1/Y
+ mem_left_ipin_7.LATCH_1_.latch/Q mux_left_ipin_7.mux_l2_in_0_.TGATE_0_.scs8hd_ebufn_2/A
+ vgnd vpwr scs8hd_ebufn_2
XANTENNA_mux_left_ipin_3.mux_l1_in_1_.TGATE_1_.scs8hd_ebufn_2_TEB mem_left_ipin_3.LATCH_1_.latch/Q
+ vgnd vpwr scs8hd_diode_2
XANTENNA_mux_left_ipin_5.INVTX1_0_.scs8hd_inv_1_A chany_bottom_in[0] vgnd vpwr scs8hd_diode_2
XANTENNA__059__A _047_/Y vgnd vpwr scs8hd_diode_2
XFILLER_23_34 vpwr vgnd scs8hd_fill_2
XFILLER_23_56 vpwr vgnd scs8hd_fill_2
XFILLER_2_146 vgnd vpwr scs8hd_fill_1
XFILLER_0_27 vpwr vgnd scs8hd_fill_2
XANTENNA_mux_right_ipin_0.mux_l1_in_0_.TGATE_2_.scs8hd_ebufn_2_A mux_right_ipin_0.INVTX1_2_.scs8hd_inv_1/Y
+ vgnd vpwr scs8hd_diode_2
XFILLER_9_14 vpwr vgnd scs8hd_fill_2
XFILLER_29_3 vgnd vpwr scs8hd_decap_12
XFILLER_20_201 vgnd vpwr scs8hd_decap_8
XANTENNA__061__B address[2] vgnd vpwr scs8hd_diode_2
XANTENNA_mux_left_ipin_7.mux_l1_in_0_.TGATE_0_.scs8hd_ebufn_2_TEB mem_left_ipin_7.LATCH_0_.latch/Q
+ vgnd vpwr scs8hd_diode_2
Xmux_left_ipin_4.mux_l2_in_0_.TGATE_1_.scs8hd_ebufn_2 mux_left_ipin_4.mux_l2_in_0_.TGATE_1_.scs8hd_ebufn_2/A
+ mem_left_ipin_4.LATCH_4_.latch/Q mux_left_ipin_4.tap_buf4_0_.scs8hd_inv_1/A vgnd
+ vpwr scs8hd_ebufn_2
XFILLER_18_23 vpwr vgnd scs8hd_fill_2
X_042_ address[0] _053_/C vgnd vpwr scs8hd_inv_8
X_111_ _085_/A _114_/B _111_/Y vgnd vpwr scs8hd_nor2_4
XANTENNA_mux_left_ipin_2.mux_l2_in_0_.TGATE_0_.scs8hd_ebufn_2_A mux_left_ipin_2.mux_l1_in_0_.TGATE_1_.scs8hd_ebufn_2/Z
+ vgnd vpwr scs8hd_diode_2
XANTENNA__056__B _055_/X vgnd vpwr scs8hd_diode_2
XANTENNA__072__A _080_/A vgnd vpwr scs8hd_diode_2
XFILLER_20_46 vgnd vpwr scs8hd_decap_3
XFILLER_29_66 vgnd vpwr scs8hd_fill_1
XFILLER_28_197 vgnd vpwr scs8hd_decap_4
XFILLER_28_186 vgnd vpwr scs8hd_decap_4
XANTENNA_mux_right_ipin_0.mux_l2_in_0_.TGATE_0_.scs8hd_ebufn_2_A mux_right_ipin_0.mux_l1_in_0_.TGATE_0_.scs8hd_ebufn_2/Z
+ vgnd vpwr scs8hd_diode_2
XANTENNA_mux_left_ipin_2.mux_l1_in_0_.TGATE_0_.scs8hd_ebufn_2_TEB mem_left_ipin_2.LATCH_0_.latch/Q
+ vgnd vpwr scs8hd_diode_2
XFILLER_10_90 vpwr vgnd scs8hd_fill_2
XANTENNA__157__A chany_bottom_in[2] vgnd vpwr scs8hd_diode_2
Xmem_right_ipin_1.LATCH_0_.latch data_in _044_/A _107_/Y vgnd vpwr scs8hd_lpflow_inputisolatch_1
XFILLER_25_156 vgnd vpwr scs8hd_decap_3
XANTENNA__067__A address[5] vgnd vpwr scs8hd_diode_2
XFILLER_15_13 vpwr vgnd scs8hd_fill_2
XFILLER_15_57 vpwr vgnd scs8hd_fill_2
XFILLER_15_79 vgnd vpwr scs8hd_decap_4
XFILLER_31_56 vgnd vpwr scs8hd_decap_6
XFILLER_0_200 vgnd vpwr scs8hd_decap_12
XFILLER_16_101 vgnd vpwr scs8hd_decap_3
XFILLER_16_145 vpwr vgnd scs8hd_fill_2
XFILLER_16_189 vpwr vgnd scs8hd_fill_2
XFILLER_31_148 vgnd vpwr scs8hd_decap_6
XFILLER_31_137 vgnd vpwr scs8hd_decap_4
XPHY_162 vgnd vpwr scs8hd_tapvpwrvgnd_1
XPHY_151 vgnd vpwr scs8hd_tapvpwrvgnd_1
XPHY_140 vgnd vpwr scs8hd_tapvpwrvgnd_1
Xmux_left_ipin_0.mux_l1_in_1_.TGATE_1_.scs8hd_ebufn_2 mux_left_ipin_0.INVTX1_4_.scs8hd_inv_1/Y
+ mem_left_ipin_0.LATCH_1_.latch/Q mux_left_ipin_0.mux_l2_in_0_.TGATE_1_.scs8hd_ebufn_2/A
+ vgnd vpwr scs8hd_ebufn_2
XANTENNA_mux_left_ipin_5.mux_l1_in_1_.TGATE_0_.scs8hd_ebufn_2_TEB mem_left_ipin_5.LATCH_0_.latch/Q
+ vgnd vpwr scs8hd_diode_2
XFILLER_30_181 vgnd vpwr scs8hd_decap_12
XANTENNA__053__C _053_/C vgnd vpwr scs8hd_diode_2
XFILLER_8_141 vpwr vgnd scs8hd_fill_2
XANTENNA_mem_left_ipin_6.LATCH_3_.latch_SLEEPB _087_/Y vgnd vpwr scs8hd_diode_2
XANTENNA__064__B _089_/A vgnd vpwr scs8hd_diode_2
XANTENNA__080__A _080_/A vgnd vpwr scs8hd_diode_2
XFILLER_12_58 vpwr vgnd scs8hd_fill_2
XANTENNA_mux_left_ipin_0.mux_l1_in_1_.TGATE_0_.scs8hd_ebufn_2_TEB mem_left_ipin_0.LATCH_0_.latch/Q
+ vgnd vpwr scs8hd_diode_2
XFILLER_5_199 vpwr vgnd scs8hd_fill_2
XFILLER_4_81 vpwr vgnd scs8hd_fill_2
XANTENNA__059__B address[2] vgnd vpwr scs8hd_diode_2
Xmux_left_ipin_4.mux_l1_in_1_.TGATE_2_.scs8hd_ebufn_2 mux_left_ipin_4.INVTX1_5_.scs8hd_inv_1/Y
+ mem_left_ipin_4.LATCH_2_.latch/Q mux_left_ipin_4.mux_l2_in_0_.TGATE_1_.scs8hd_ebufn_2/A
+ vgnd vpwr scs8hd_ebufn_2
XANTENNA__075__A _091_/A vgnd vpwr scs8hd_diode_2
XFILLER_14_210 vpwr vgnd scs8hd_fill_2
Xmem_left_ipin_0.LATCH_4_.latch data_in mem_left_ipin_0.LATCH_4_.latch/Q _112_/Y vgnd
+ vpwr scs8hd_lpflow_inputisolatch_1
Xmux_left_ipin_5.INVTX1_2_.scs8hd_inv_1 chany_bottom_in[4] mux_left_ipin_5.INVTX1_2_.scs8hd_inv_1/Y
+ vgnd vpwr scs8hd_inv_1
XANTENNA__061__C address[0] vgnd vpwr scs8hd_diode_2
X_110_ _091_/A address[4] address[3] _055_/D _114_/B vgnd vpwr scs8hd_or4_4
XFILLER_11_202 vgnd vpwr scs8hd_decap_8
Xmux_left_ipin_2.mux_l1_in_0_.TGATE_0_.scs8hd_ebufn_2 mux_left_ipin_2.INVTX1_0_.scs8hd_inv_1/Y
+ mem_left_ipin_2.LATCH_0_.latch/Q mux_left_ipin_2.mux_l1_in_0_.TGATE_1_.scs8hd_ebufn_2/Z
+ vgnd vpwr scs8hd_ebufn_2
XANTENNA_mux_left_ipin_6.mux_l1_in_1_.TGATE_2_.scs8hd_ebufn_2_A mux_left_ipin_6.INVTX1_5_.scs8hd_inv_1/Y
+ vgnd vpwr scs8hd_diode_2
XANTENNA_mem_left_ipin_4.LATCH_4_.latch_SLEEPB _070_/Y vgnd vpwr scs8hd_diode_2
XFILLER_20_58 vpwr vgnd scs8hd_fill_2
XANTENNA__072__B _071_/B vgnd vpwr scs8hd_diode_2
XANTENNA_mux_right_ipin_0.mux_l1_in_0_.TGATE_0_.scs8hd_ebufn_2_TEB mem_right_ipin_0.LATCH_0_.latch/Q
+ vgnd vpwr scs8hd_diode_2
XFILLER_28_176 vgnd vpwr scs8hd_decap_3
XFILLER_28_143 vgnd vpwr scs8hd_decap_8
XFILLER_6_27 vpwr vgnd scs8hd_fill_2
XFILLER_19_132 vpwr vgnd scs8hd_fill_2
XFILLER_19_176 vpwr vgnd scs8hd_fill_2
XANTENNA__083__A _091_/A vgnd vpwr scs8hd_diode_2
XANTENNA__067__B _050_/Y vgnd vpwr scs8hd_diode_2
XFILLER_15_36 vpwr vgnd scs8hd_fill_2
XFILLER_31_116 vgnd vpwr scs8hd_decap_8
XFILLER_31_105 vgnd vpwr scs8hd_decap_4
XPHY_152 vgnd vpwr scs8hd_tapvpwrvgnd_1
XPHY_141 vgnd vpwr scs8hd_tapvpwrvgnd_1
XPHY_130 vgnd vpwr scs8hd_tapvpwrvgnd_1
XPHY_163 vgnd vpwr scs8hd_tapvpwrvgnd_1
Xmux_left_ipin_6.mux_l1_in_0_.TGATE_1_.scs8hd_ebufn_2 mux_left_ipin_6.INVTX1_1_.scs8hd_inv_1/Y
+ mem_left_ipin_6.LATCH_1_.latch/Q mux_left_ipin_6.mux_l2_in_0_.TGATE_0_.scs8hd_ebufn_2/A
+ vgnd vpwr scs8hd_ebufn_2
XFILLER_22_138 vgnd vpwr scs8hd_decap_6
XFILLER_30_193 vgnd vpwr scs8hd_decap_12
XANTENNA__078__A _078_/A vgnd vpwr scs8hd_diode_2
XFILLER_21_193 vpwr vgnd scs8hd_fill_2
XANTENNA_mux_left_ipin_2.mux_l1_in_1_.TGATE_0_.scs8hd_ebufn_2_A mux_left_ipin_2.INVTX1_3_.scs8hd_inv_1/Y
+ vgnd vpwr scs8hd_diode_2
XFILLER_8_120 vgnd vpwr scs8hd_decap_3
XFILLER_8_164 vpwr vgnd scs8hd_fill_2
XFILLER_12_182 vpwr vgnd scs8hd_fill_2
Xmux_left_ipin_3.mux_l2_in_0_.TGATE_1_.scs8hd_ebufn_2 mux_left_ipin_3.mux_l1_in_1_.TGATE_2_.scs8hd_ebufn_2/Z
+ mem_left_ipin_3.LATCH_4_.latch/Q mux_left_ipin_3.tap_buf4_0_.scs8hd_inv_1/A vgnd
+ vpwr scs8hd_ebufn_2
XANTENNA_mux_right_ipin_0.mux_l1_in_1_.TGATE_0_.scs8hd_ebufn_2_A mux_right_ipin_0.INVTX1_3_.scs8hd_inv_1/Y
+ vgnd vpwr scs8hd_diode_2
XANTENNA__080__B _079_/B vgnd vpwr scs8hd_diode_2
XANTENNA_mux_left_ipin_7.mux_l2_in_0_.TGATE_2_.scs8hd_ebufn_2_A _138_/HI vgnd vpwr
+ scs8hd_diode_2
XANTENNA_mem_left_ipin_2.LATCH_5_.latch_SLEEPB _125_/Y vgnd vpwr scs8hd_diode_2
Xmem_left_ipin_1.LATCH_0_.latch data_in mem_left_ipin_1.LATCH_0_.latch/Q _123_/Y vgnd
+ vpwr scs8hd_lpflow_inputisolatch_1
XFILLER_4_60 vpwr vgnd scs8hd_fill_2
XANTENNA__059__C _053_/C vgnd vpwr scs8hd_diode_2
XANTENNA__075__B address[4] vgnd vpwr scs8hd_diode_2
XANTENNA_mux_left_ipin_3.mux_l1_in_0_.TGATE_2_.scs8hd_ebufn_2_A mux_left_ipin_3.INVTX1_2_.scs8hd_inv_1/Y
+ vgnd vpwr scs8hd_diode_2
XANTENNA__091__A _091_/A vgnd vpwr scs8hd_diode_2
XANTENNA_mux_left_ipin_0.INVTX1_3_.scs8hd_inv_1_A chany_top_in[4] vgnd vpwr scs8hd_diode_2
Xmem_left_ipin_3.LATCH_3_.latch data_in mem_left_ipin_3.LATCH_3_.latch/Q _060_/Y vgnd
+ vpwr scs8hd_lpflow_inputisolatch_1
XFILLER_9_38 vpwr vgnd scs8hd_fill_2
XANTENNA_mux_left_ipin_4.INVTX1_4_.scs8hd_inv_1_A chany_bottom_in[8] vgnd vpwr scs8hd_diode_2
Xmux_left_ipin_7.mux_l2_in_0_.TGATE_2_.scs8hd_ebufn_2 _138_/HI mem_left_ipin_7.LATCH_5_.latch/Q
+ mux_left_ipin_7.tap_buf4_0_.scs8hd_inv_1/A vgnd vpwr scs8hd_ebufn_2
XFILLER_18_47 vpwr vgnd scs8hd_fill_2
XANTENNA__086__A _078_/A vgnd vpwr scs8hd_diode_2
XFILLER_7_207 vgnd vpwr scs8hd_decap_4
XANTENNA_mux_left_ipin_3.mux_l2_in_0_.TGATE_0_.scs8hd_ebufn_2_A mux_left_ipin_3.mux_l1_in_0_.TGATE_2_.scs8hd_ebufn_2/Z
+ vgnd vpwr scs8hd_diode_2
XANTENNA_mem_left_ipin_0.LATCH_5_.latch_D data_in vgnd vpwr scs8hd_diode_2
XANTENNA_mux_right_ipin_1.mux_l2_in_0_.TGATE_0_.scs8hd_ebufn_2_A mux_right_ipin_1.mux_l2_in_0_.TGATE_0_.scs8hd_ebufn_2/A
+ vgnd vpwr scs8hd_diode_2
Xmux_left_ipin_3.INVTX1_2_.scs8hd_inv_1 chany_bottom_in[3] mux_left_ipin_3.INVTX1_2_.scs8hd_inv_1/Y
+ vgnd vpwr scs8hd_inv_1
XANTENNA_mem_left_ipin_1.LATCH_3_.latch_D data_in vgnd vpwr scs8hd_diode_2
XANTENNA_mem_left_ipin_2.LATCH_1_.latch_D data_in vgnd vpwr scs8hd_diode_2
XFILLER_19_155 vpwr vgnd scs8hd_fill_2
XFILLER_19_199 vpwr vgnd scs8hd_fill_2
XFILLER_25_147 vpwr vgnd scs8hd_fill_2
XFILLER_25_114 vgnd vpwr scs8hd_decap_4
XANTENNA__083__B _091_/B vgnd vpwr scs8hd_diode_2
XANTENNA_mux_left_ipin_3.mux_l2_in_0_.TGATE_2_.scs8hd_ebufn_2_TEB mem_left_ipin_3.LATCH_5_.latch/Q
+ vgnd vpwr scs8hd_diode_2
XANTENNA_mem_right_ipin_0.LATCH_3_.latch_SLEEPB _102_/Y vgnd vpwr scs8hd_diode_2
XPHY_164 vgnd vpwr scs8hd_tapvpwrvgnd_1
XPHY_153 vgnd vpwr scs8hd_tapvpwrvgnd_1
XPHY_142 vgnd vpwr scs8hd_tapvpwrvgnd_1
XFILLER_16_125 vgnd vpwr scs8hd_decap_3
XPHY_120 vgnd vpwr scs8hd_tapvpwrvgnd_1
XPHY_131 vgnd vpwr scs8hd_tapvpwrvgnd_1
XPHY_0 vgnd vpwr scs8hd_decap_3
Xmux_left_ipin_3.mux_l1_in_1_.TGATE_2_.scs8hd_ebufn_2 mux_left_ipin_3.INVTX1_5_.scs8hd_inv_1/Y
+ mem_left_ipin_3.LATCH_2_.latch/Q mux_left_ipin_3.mux_l1_in_1_.TGATE_2_.scs8hd_ebufn_2/Z
+ vgnd vpwr scs8hd_ebufn_2
XFILLER_22_106 vpwr vgnd scs8hd_fill_2
XFILLER_7_82 vpwr vgnd scs8hd_fill_2
XFILLER_7_93 vpwr vgnd scs8hd_fill_2
XANTENNA__078__B _079_/B vgnd vpwr scs8hd_diode_2
XFILLER_26_69 vgnd vpwr scs8hd_decap_8
XFILLER_26_58 vgnd vpwr scs8hd_decap_8
XFILLER_26_47 vgnd vpwr scs8hd_decap_8
XANTENNA__094__A _079_/A vgnd vpwr scs8hd_diode_2
XFILLER_13_106 vpwr vgnd scs8hd_fill_2
XFILLER_8_154 vgnd vpwr scs8hd_fill_1
XANTENNA_mem_left_ipin_5.LATCH_5_.latch_D data_in vgnd vpwr scs8hd_diode_2
XFILLER_12_16 vpwr vgnd scs8hd_fill_2
XFILLER_12_27 vpwr vgnd scs8hd_fill_2
Xmux_left_ipin_1.mux_l1_in_0_.TGATE_0_.scs8hd_ebufn_2 mux_left_ipin_1.INVTX1_0_.scs8hd_inv_1/Y
+ mem_left_ipin_1.LATCH_0_.latch/Q mux_left_ipin_1.mux_l1_in_0_.TGATE_2_.scs8hd_ebufn_2/Z
+ vgnd vpwr scs8hd_ebufn_2
XANTENNA__089__A _089_/A vgnd vpwr scs8hd_diode_2
XANTENNA_mem_left_ipin_6.LATCH_3_.latch_D data_in vgnd vpwr scs8hd_diode_2
XFILLER_5_179 vpwr vgnd scs8hd_fill_2
XANTENNA_mem_left_ipin_7.LATCH_1_.latch_D data_in vgnd vpwr scs8hd_diode_2
XFILLER_27_90 vpwr vgnd scs8hd_fill_2
XANTENNA_mux_left_ipin_2.INVTX1_1_.scs8hd_inv_1_A chany_top_in[1] vgnd vpwr scs8hd_diode_2
Xmem_left_ipin_6.LATCH_2_.latch data_in mem_left_ipin_6.LATCH_2_.latch/Q _088_/Y vgnd
+ vpwr scs8hd_lpflow_inputisolatch_1
XANTENNA_mux_left_ipin_6.INVTX1_2_.scs8hd_inv_1_A chany_bottom_in[5] vgnd vpwr scs8hd_diode_2
XANTENNA__075__C _091_/C vgnd vpwr scs8hd_diode_2
XANTENNA__091__B _091_/B vgnd vpwr scs8hd_diode_2
XFILLER_2_127 vpwr vgnd scs8hd_fill_2
XFILLER_2_149 vpwr vgnd scs8hd_fill_2
XFILLER_1_193 vpwr vgnd scs8hd_fill_2
XANTENNA_mux_left_ipin_5.mux_l2_in_0_.TGATE_1_.scs8hd_ebufn_2_TEB mem_left_ipin_5.LATCH_4_.latch/Q
+ vgnd vpwr scs8hd_diode_2
Xmux_left_ipin_4.tap_buf4_0_.scs8hd_inv_1 mux_left_ipin_4.tap_buf4_0_.scs8hd_inv_1/A
+ right_grid_pin_8_ vgnd vpwr scs8hd_inv_1
XANTENNA__086__B _090_/B vgnd vpwr scs8hd_diode_2
Xmux_left_ipin_5.mux_l1_in_0_.TGATE_1_.scs8hd_ebufn_2 mux_left_ipin_5.INVTX1_1_.scs8hd_inv_1/Y
+ mem_left_ipin_5.LATCH_1_.latch/Q mux_left_ipin_5.mux_l1_in_0_.TGATE_2_.scs8hd_ebufn_2/Z
+ vgnd vpwr scs8hd_ebufn_2
XANTENNA_mem_left_ipin_7.LATCH_5_.latch_SLEEPB _092_/Y vgnd vpwr scs8hd_diode_2
XFILLER_27_3 vgnd vpwr scs8hd_decap_12
X_099_ _091_/A address[4] address[3] _108_/B _105_/B vgnd vpwr scs8hd_or4_4
XANTENNA_mux_left_ipin_7.mux_l1_in_1_.TGATE_2_.scs8hd_ebufn_2_A mux_left_ipin_7.INVTX1_5_.scs8hd_inv_1/Y
+ vgnd vpwr scs8hd_diode_2
XFILLER_1_62 vpwr vgnd scs8hd_fill_2
XFILLER_1_84 vgnd vpwr scs8hd_fill_1
XANTENNA_mem_left_ipin_1.LATCH_0_.latch_SLEEPB _123_/Y vgnd vpwr scs8hd_diode_2
XFILLER_20_27 vpwr vgnd scs8hd_fill_2
Xmux_right_ipin_1.tap_buf4_0_.scs8hd_inv_1 mux_right_ipin_1.tap_buf4_0_.scs8hd_inv_1/A
+ left_grid_pin_5_ vgnd vpwr scs8hd_inv_1
XANTENNA__097__A _090_/A vgnd vpwr scs8hd_diode_2
XFILLER_10_82 vgnd vpwr scs8hd_decap_6
XFILLER_10_93 vgnd vpwr scs8hd_fill_1
XANTENNA_mux_left_ipin_0.mux_l2_in_0_.TGATE_1_.scs8hd_ebufn_2_TEB mem_left_ipin_0.LATCH_4_.latch/Q
+ vgnd vpwr scs8hd_diode_2
Xmux_left_ipin_2.mux_l2_in_0_.TGATE_1_.scs8hd_ebufn_2 mux_left_ipin_2.mux_l1_in_1_.TGATE_1_.scs8hd_ebufn_2/Z
+ mem_left_ipin_2.LATCH_4_.latch/Q mux_left_ipin_2.tap_buf4_0_.scs8hd_inv_1/A vgnd
+ vpwr scs8hd_ebufn_2
XFILLER_25_126 vpwr vgnd scs8hd_fill_2
XFILLER_31_15 vgnd vpwr scs8hd_decap_12
XANTENNA__083__C address[3] vgnd vpwr scs8hd_diode_2
XFILLER_16_137 vpwr vgnd scs8hd_fill_2
XPHY_165 vgnd vpwr scs8hd_tapvpwrvgnd_1
XFILLER_31_129 vgnd vpwr scs8hd_fill_1
XPHY_154 vgnd vpwr scs8hd_tapvpwrvgnd_1
XPHY_143 vgnd vpwr scs8hd_tapvpwrvgnd_1