* NGSPICE file created from cby_2__1_.ext - technology: sky130A

* Black-box entry subcircuit for sky130_fd_sc_hd__diode_2 abstract view
.subckt sky130_fd_sc_hd__diode_2 DIODE VGND VNB VPB VPWR
.ends

* Black-box entry subcircuit for sky130_fd_sc_hd__fill_1 abstract view
.subckt sky130_fd_sc_hd__fill_1 VGND VNB VPB VPWR
.ends

* Black-box entry subcircuit for sky130_fd_sc_hd__decap_12 abstract view
.subckt sky130_fd_sc_hd__decap_12 VGND VNB VPB VPWR
.ends

* Black-box entry subcircuit for sky130_fd_sc_hd__fill_2 abstract view
.subckt sky130_fd_sc_hd__fill_2 VGND VNB VPB VPWR
.ends

* Black-box entry subcircuit for sky130_fd_sc_hd__decap_3 abstract view
.subckt sky130_fd_sc_hd__decap_3 VGND VNB VPB VPWR
.ends

* Black-box entry subcircuit for sky130_fd_sc_hd__dfxbp_1 abstract view
.subckt sky130_fd_sc_hd__dfxbp_1 D Q Q_N CLK VGND VNB VPB VPWR
.ends

* Black-box entry subcircuit for sky130_fd_sc_hd__mux2_1 abstract view
.subckt sky130_fd_sc_hd__mux2_1 A0 A1 S X VGND VNB VPB VPWR
.ends

* Black-box entry subcircuit for sky130_fd_sc_hd__decap_4 abstract view
.subckt sky130_fd_sc_hd__decap_4 VGND VNB VPB VPWR
.ends

* Black-box entry subcircuit for sky130_fd_sc_hd__buf_2 abstract view
.subckt sky130_fd_sc_hd__buf_2 A X VGND VNB VPB VPWR
.ends

* Black-box entry subcircuit for sky130_fd_sc_hd__decap_6 abstract view
.subckt sky130_fd_sc_hd__decap_6 VGND VNB VPB VPWR
.ends

* Black-box entry subcircuit for sky130_fd_sc_hd__clkbuf_1 abstract view
.subckt sky130_fd_sc_hd__clkbuf_1 A X VGND VNB VPB VPWR
.ends

* Black-box entry subcircuit for sky130_fd_sc_hd__decap_8 abstract view
.subckt sky130_fd_sc_hd__decap_8 VGND VNB VPB VPWR
.ends

* Black-box entry subcircuit for sky130_fd_sc_hd__tapvpwrvgnd_1 abstract view
.subckt sky130_fd_sc_hd__tapvpwrvgnd_1 VGND VPWR
.ends

* Black-box entry subcircuit for sky130_fd_sc_hd__buf_4 abstract view
.subckt sky130_fd_sc_hd__buf_4 A X VGND VNB VPB VPWR
.ends

* Black-box entry subcircuit for sky130_fd_sc_hd__conb_1 abstract view
.subckt sky130_fd_sc_hd__conb_1 HI LO VGND VNB VPB VPWR
.ends

* Black-box entry subcircuit for sky130_fd_sc_hd__clkbuf_16 abstract view
.subckt sky130_fd_sc_hd__clkbuf_16 A X VGND VNB VPB VPWR
.ends

.subckt cby_2__1_ ccff_head ccff_tail chany_bottom_in[0] chany_bottom_in[10] chany_bottom_in[11]
+ chany_bottom_in[12] chany_bottom_in[13] chany_bottom_in[14] chany_bottom_in[15]
+ chany_bottom_in[16] chany_bottom_in[17] chany_bottom_in[18] chany_bottom_in[19]
+ chany_bottom_in[1] chany_bottom_in[2] chany_bottom_in[3] chany_bottom_in[4] chany_bottom_in[5]
+ chany_bottom_in[6] chany_bottom_in[7] chany_bottom_in[8] chany_bottom_in[9] chany_bottom_out[0]
+ chany_bottom_out[10] chany_bottom_out[11] chany_bottom_out[12] chany_bottom_out[13]
+ chany_bottom_out[14] chany_bottom_out[15] chany_bottom_out[16] chany_bottom_out[17]
+ chany_bottom_out[18] chany_bottom_out[19] chany_bottom_out[1] chany_bottom_out[2]
+ chany_bottom_out[3] chany_bottom_out[4] chany_bottom_out[5] chany_bottom_out[6]
+ chany_bottom_out[7] chany_bottom_out[8] chany_bottom_out[9] chany_top_in[0] chany_top_in[10]
+ chany_top_in[11] chany_top_in[12] chany_top_in[13] chany_top_in[14] chany_top_in[15]
+ chany_top_in[16] chany_top_in[17] chany_top_in[18] chany_top_in[19] chany_top_in[1]
+ chany_top_in[2] chany_top_in[3] chany_top_in[4] chany_top_in[5] chany_top_in[6]
+ chany_top_in[7] chany_top_in[8] chany_top_in[9] chany_top_out[0] chany_top_out[10]
+ chany_top_out[11] chany_top_out[12] chany_top_out[13] chany_top_out[14] chany_top_out[15]
+ chany_top_out[16] chany_top_out[17] chany_top_out[18] chany_top_out[19] chany_top_out[1]
+ chany_top_out[2] chany_top_out[3] chany_top_out[4] chany_top_out[5] chany_top_out[6]
+ chany_top_out[7] chany_top_out[8] chany_top_out[9] gfpga_pad_EMBEDDED_IO_SOC_DIR
+ gfpga_pad_EMBEDDED_IO_SOC_IN gfpga_pad_EMBEDDED_IO_SOC_OUT left_grid_pin_16_ left_grid_pin_17_
+ left_grid_pin_18_ left_grid_pin_19_ left_grid_pin_20_ left_grid_pin_21_ left_grid_pin_22_
+ left_grid_pin_23_ left_grid_pin_24_ left_grid_pin_25_ left_grid_pin_26_ left_grid_pin_27_
+ left_grid_pin_28_ left_grid_pin_29_ left_grid_pin_30_ left_grid_pin_31_ left_width_0_height_0__pin_0_
+ left_width_0_height_0__pin_1_lower left_width_0_height_0__pin_1_upper prog_clk right_grid_pin_0_
+ VPWR VGND
XANTENNA_mux_right_ipin_1.mux_l3_in_0__A1 mux_right_ipin_1.mux_l2_in_0_/X VGND VGND
+ VPWR VPWR sky130_fd_sc_hd__diode_2
XFILLER_22_100 VGND VGND VPWR VPWR sky130_fd_sc_hd__fill_1
XFILLER_22_111 VGND VGND VPWR VPWR sky130_fd_sc_hd__decap_12
XFILLER_13_111 VGND VGND VPWR VPWR sky130_fd_sc_hd__fill_2
XFILLER_26_74 VGND VGND VPWR VPWR sky130_fd_sc_hd__fill_2
XFILLER_42_62 VGND VGND VPWR VPWR sky130_fd_sc_hd__fill_1
XFILLER_42_51 VGND VGND VPWR VPWR sky130_fd_sc_hd__fill_2
XFILLER_54_9 VGND VGND VPWR VPWR sky130_fd_sc_hd__decap_12
XFILLER_3_56 VGND VGND VPWR VPWR sky130_fd_sc_hd__decap_3
XANTENNA_mux_left_ipin_0.mux_l2_in_1__A1 mux_left_ipin_0.mux_l1_in_2_/X VGND VGND
+ VPWR VPWR sky130_fd_sc_hd__diode_2
Xmem_right_ipin_14.sky130_fd_sc_hd__dfxbp_1_0_ mux_right_ipin_13.mux_l4_in_0_/S mux_right_ipin_14.mux_l1_in_0_/S
+ mem_right_ipin_14.sky130_fd_sc_hd__dfxbp_1_0_/Q_N clkbuf_3_7_0_prog_clk/X VGND VGND
+ VPWR VPWR sky130_fd_sc_hd__dfxbp_1
XFILLER_63_39 VGND VGND VPWR VPWR sky130_fd_sc_hd__decap_12
XANTENNA_mux_right_ipin_3.mux_l2_in_0__S mux_right_ipin_3.mux_l2_in_2_/S VGND VGND
+ VPWR VPWR sky130_fd_sc_hd__diode_2
XFILLER_12_32 VGND VGND VPWR VPWR sky130_fd_sc_hd__decap_3
XANTENNA_mux_right_ipin_8.mux_l4_in_0__A0 mux_right_ipin_8.mux_l3_in_1_/X VGND VGND
+ VPWR VPWR sky130_fd_sc_hd__diode_2
XFILLER_12_65 VGND VGND VPWR VPWR sky130_fd_sc_hd__fill_2
Xmux_right_ipin_11.mux_l2_in_0_ mux_right_ipin_11.mux_l1_in_1_/X mux_right_ipin_11.mux_l1_in_0_/X
+ mux_right_ipin_11.mux_l2_in_0_/S mux_right_ipin_11.mux_l2_in_0_/X VGND VGND VPWR
+ VPWR sky130_fd_sc_hd__mux2_1
XFILLER_37_62 VGND VGND VPWR VPWR sky130_fd_sc_hd__fill_2
XFILLER_53_83 VGND VGND VPWR VPWR sky130_fd_sc_hd__decap_4
XANTENNA_mux_left_ipin_0.mux_l2_in_0__S mux_left_ipin_0.mux_l2_in_0_/S VGND VGND VPWR
+ VPWR sky130_fd_sc_hd__diode_2
X_66_ chany_bottom_in[7] chany_top_out[7] VGND VGND VPWR VPWR sky130_fd_sc_hd__buf_2
XFILLER_23_97 VGND VGND VPWR VPWR sky130_fd_sc_hd__fill_2
XANTENNA_mux_left_ipin_0.mux_l3_in_0__A1 mux_left_ipin_0.mux_l2_in_0_/X VGND VGND
+ VPWR VPWR sky130_fd_sc_hd__diode_2
XFILLER_2_110 VGND VGND VPWR VPWR sky130_fd_sc_hd__fill_2
XFILLER_48_72 VGND VGND VPWR VPWR sky130_fd_sc_hd__decap_6
XFILLER_17_9 VGND VGND VPWR VPWR sky130_fd_sc_hd__fill_2
XFILLER_9_66 VGND VGND VPWR VPWR sky130_fd_sc_hd__fill_2
XFILLER_50_3 VGND VGND VPWR VPWR sky130_fd_sc_hd__fill_2
XANTENNA_clkbuf_2_1_0_prog_clk_A clkbuf_2_1_0_prog_clk/A VGND VGND VPWR VPWR sky130_fd_sc_hd__diode_2
Xclkbuf_3_4_0_prog_clk clkbuf_3_5_0_prog_clk/A clkbuf_3_4_0_prog_clk/X VGND VGND VPWR
+ VPWR sky130_fd_sc_hd__clkbuf_1
X_49_ chany_top_in[4] chany_bottom_out[4] VGND VGND VPWR VPWR sky130_fd_sc_hd__buf_2
XANTENNA_mux_right_ipin_2.mux_l3_in_0__S mux_right_ipin_2.mux_l3_in_1_/S VGND VGND
+ VPWR VPWR sky130_fd_sc_hd__diode_2
Xmux_right_ipin_11.mux_l1_in_1_ chany_top_in[2] chany_bottom_in[2] mux_right_ipin_11.mux_l1_in_0_/S
+ mux_right_ipin_11.mux_l1_in_1_/X VGND VGND VPWR VPWR sky130_fd_sc_hd__mux2_1
XFILLER_18_20 VGND VGND VPWR VPWR sky130_fd_sc_hd__fill_2
XFILLER_34_41 VGND VGND VPWR VPWR sky130_fd_sc_hd__decap_8
XANTENNA_mux_right_ipin_11.mux_l1_in_1__A1 chany_bottom_in[2] VGND VGND VPWR VPWR
+ sky130_fd_sc_hd__diode_2
XFILLER_50_62 VGND VGND VPWR VPWR sky130_fd_sc_hd__fill_2
XFILLER_22_7 VGND VGND VPWR VPWR sky130_fd_sc_hd__decap_4
XANTENNA_mux_right_ipin_8.mux_l2_in_1__S mux_right_ipin_8.mux_l2_in_0_/S VGND VGND
+ VPWR VPWR sky130_fd_sc_hd__diode_2
XANTENNA_mem_right_ipin_0.sky130_fd_sc_hd__dfxbp_1_0__CLK clkbuf_3_2_0_prog_clk/X
+ VGND VGND VPWR VPWR sky130_fd_sc_hd__diode_2
XANTENNA_mux_right_ipin_8.mux_l2_in_2__A1 chany_top_in[13] VGND VGND VPWR VPWR sky130_fd_sc_hd__diode_2
XFILLER_52_120 VGND VGND VPWR VPWR sky130_fd_sc_hd__decap_12
XANTENNA_mem_right_ipin_13.sky130_fd_sc_hd__dfxbp_1_0__CLK clkbuf_3_7_0_prog_clk/X
+ VGND VGND VPWR VPWR sky130_fd_sc_hd__diode_2
XANTENNA_mux_right_ipin_11.mux_l1_in_0__S mux_right_ipin_11.mux_l1_in_0_/S VGND VGND
+ VPWR VPWR sky130_fd_sc_hd__diode_2
XFILLER_29_74 VGND VGND VPWR VPWR sky130_fd_sc_hd__fill_2
XFILLER_45_40 VGND VGND VPWR VPWR sky130_fd_sc_hd__fill_2
XFILLER_43_120 VGND VGND VPWR VPWR sky130_fd_sc_hd__fill_2
XFILLER_13_3 VGND VGND VPWR VPWR sky130_fd_sc_hd__fill_2
XFILLER_34_142 VGND VGND VPWR VPWR sky130_fd_sc_hd__decap_4
XANTENNA_mux_right_ipin_3.mux_l2_in_3__S mux_right_ipin_3.mux_l2_in_2_/S VGND VGND
+ VPWR VPWR sky130_fd_sc_hd__diode_2
XANTENNA_mux_right_ipin_11.mux_l2_in_0__A1 mux_right_ipin_11.mux_l1_in_0_/X VGND VGND
+ VPWR VPWR sky130_fd_sc_hd__diode_2
XANTENNA_mux_right_ipin_1.mux_l4_in_0__S mux_right_ipin_1.mux_l4_in_0_/S VGND VGND
+ VPWR VPWR sky130_fd_sc_hd__diode_2
XFILLER_25_120 VGND VGND VPWR VPWR sky130_fd_sc_hd__fill_2
XFILLER_40_145 VGND VGND VPWR VPWR sky130_fd_sc_hd__fill_1
XFILLER_15_65 VGND VGND VPWR VPWR sky130_fd_sc_hd__decap_4
XANTENNA_mux_left_ipin_0.mux_l2_in_3__S mux_left_ipin_0.mux_l2_in_0_/S VGND VGND VPWR
+ VPWR sky130_fd_sc_hd__diode_2
XANTENNA_mem_right_ipin_3.sky130_fd_sc_hd__dfxbp_1_1__CLK clkbuf_3_1_0_prog_clk/X
+ VGND VGND VPWR VPWR sky130_fd_sc_hd__diode_2
XANTENNA_mux_right_ipin_8.mux_l3_in_1__A1 mux_right_ipin_8.mux_l2_in_2_/X VGND VGND
+ VPWR VPWR sky130_fd_sc_hd__diode_2
XPHY_170 VGND VPWR sky130_fd_sc_hd__tapvpwrvgnd_1
XPHY_181 VGND VPWR sky130_fd_sc_hd__tapvpwrvgnd_1
XPHY_192 VGND VPWR sky130_fd_sc_hd__tapvpwrvgnd_1
XANTENNA_mux_right_ipin_7.mux_l3_in_1__S mux_right_ipin_7.mux_l3_in_0_/S VGND VGND
+ VPWR VPWR sky130_fd_sc_hd__diode_2
XFILLER_22_123 VGND VGND VPWR VPWR sky130_fd_sc_hd__decap_8
XFILLER_13_123 VGND VGND VPWR VPWR sky130_fd_sc_hd__decap_12
XFILLER_26_42 VGND VGND VPWR VPWR sky130_fd_sc_hd__fill_2
XFILLER_26_97 VGND VGND VPWR VPWR sky130_fd_sc_hd__fill_2
XANTENNA_mux_right_ipin_10.mux_l2_in_0__S mux_right_ipin_10.mux_l2_in_2_/S VGND VGND
+ VPWR VPWR sky130_fd_sc_hd__diode_2
XANTENNA_mem_right_ipin_0.sky130_fd_sc_hd__dfxbp_1_1__D mux_right_ipin_0.mux_l1_in_2_/S
+ VGND VGND VPWR VPWR sky130_fd_sc_hd__diode_2
XANTENNA_mux_right_ipin_0.sky130_fd_sc_hd__buf_4_0__A mux_right_ipin_0.mux_l4_in_0_/X
+ VGND VGND VPWR VPWR sky130_fd_sc_hd__diode_2
XFILLER_3_13 VGND VGND VPWR VPWR sky130_fd_sc_hd__fill_1
XANTENNA_mem_right_ipin_6.sky130_fd_sc_hd__dfxbp_1_2__CLK clkbuf_3_3_0_prog_clk/X
+ VGND VGND VPWR VPWR sky130_fd_sc_hd__diode_2
XANTENNA_mux_right_ipin_5.mux_l2_in_0__A0 chany_bottom_in[2] VGND VGND VPWR VPWR sky130_fd_sc_hd__diode_2
XANTENNA_mux_right_ipin_8.mux_l4_in_0__A1 mux_right_ipin_8.mux_l3_in_0_/X VGND VGND
+ VPWR VPWR sky130_fd_sc_hd__diode_2
XFILLER_53_62 VGND VGND VPWR VPWR sky130_fd_sc_hd__fill_2
Xmux_right_ipin_8.sky130_fd_sc_hd__buf_4_0_ mux_right_ipin_8.mux_l4_in_0_/X left_grid_pin_24_
+ VGND VGND VPWR VPWR sky130_fd_sc_hd__buf_4
X_65_ chany_bottom_in[8] chany_top_out[8] VGND VGND VPWR VPWR sky130_fd_sc_hd__buf_2
XFILLER_59_115 VGND VGND VPWR VPWR sky130_fd_sc_hd__decap_6
XANTENNA_mux_right_ipin_3.mux_l2_in_2__A0 chany_bottom_in[14] VGND VGND VPWR VPWR
+ sky130_fd_sc_hd__diode_2
XFILLER_2_133 VGND VGND VPWR VPWR sky130_fd_sc_hd__decap_12
XANTENNA_mem_right_ipin_9.sky130_fd_sc_hd__dfxbp_1_3__CLK clkbuf_3_4_0_prog_clk/X
+ VGND VGND VPWR VPWR sky130_fd_sc_hd__diode_2
XFILLER_64_94 VGND VGND VPWR VPWR sky130_fd_sc_hd__decap_12
XANTENNA_mem_right_ipin_12.sky130_fd_sc_hd__dfxbp_1_0__D mux_right_ipin_11.mux_l4_in_0_/S
+ VGND VGND VPWR VPWR sky130_fd_sc_hd__diode_2
XFILLER_0_58 VGND VGND VPWR VPWR sky130_fd_sc_hd__fill_2
XFILLER_9_34 VGND VGND VPWR VPWR sky130_fd_sc_hd__fill_2
X_48_ chany_top_in[5] chany_bottom_out[5] VGND VGND VPWR VPWR sky130_fd_sc_hd__buf_2
Xmux_right_ipin_11.mux_l1_in_0_ chany_top_in[0] chany_bottom_in[0] mux_right_ipin_11.mux_l1_in_0_/S
+ mux_right_ipin_11.mux_l1_in_0_/X VGND VGND VPWR VPWR sky130_fd_sc_hd__mux2_1
XANTENNA_mux_right_ipin_15.mux_l2_in_1__S mux_right_ipin_15.mux_l2_in_3_/S VGND VGND
+ VPWR VPWR sky130_fd_sc_hd__diode_2
XANTENNA_mem_right_ipin_5.sky130_fd_sc_hd__dfxbp_1_0__D mux_right_ipin_4.mux_l4_in_0_/S
+ VGND VGND VPWR VPWR sky130_fd_sc_hd__diode_2
XFILLER_18_32 VGND VGND VPWR VPWR sky130_fd_sc_hd__fill_2
XFILLER_50_41 VGND VGND VPWR VPWR sky130_fd_sc_hd__fill_2
XFILLER_34_75 VGND VGND VPWR VPWR sky130_fd_sc_hd__decap_3
XFILLER_59_94 VGND VGND VPWR VPWR sky130_fd_sc_hd__fill_2
XFILLER_61_143 VGND VGND VPWR VPWR sky130_fd_sc_hd__decap_3
XFILLER_61_110 VGND VGND VPWR VPWR sky130_fd_sc_hd__decap_3
XFILLER_29_118 VGND VGND VPWR VPWR sky130_fd_sc_hd__fill_2
XFILLER_55_19 VGND VGND VPWR VPWR sky130_fd_sc_hd__decap_6
XFILLER_52_132 VGND VGND VPWR VPWR sky130_fd_sc_hd__decap_12
XFILLER_52_110 VGND VGND VPWR VPWR sky130_fd_sc_hd__fill_1
XANTENNA_mux_right_ipin_3.mux_l3_in_1__A0 mux_right_ipin_3.mux_l2_in_3_/X VGND VGND
+ VPWR VPWR sky130_fd_sc_hd__diode_2
Xltile_mode_io__0.ltile_physical_iopad_0.EMBEDDED_IO_mem.sky130_fd_sc_hd__dfxbp_1_0_
+ mux_right_ipin_15.mux_l4_in_0_/S ccff_tail ltile_mode_io__0.ltile_physical_iopad_0.EMBEDDED_IO_mem.sky130_fd_sc_hd__dfxbp_1_0_/Q_N
+ clkbuf_3_6_0_prog_clk/X VGND VGND VPWR VPWR sky130_fd_sc_hd__dfxbp_1
XFILLER_29_53 VGND VGND VPWR VPWR sky130_fd_sc_hd__fill_2
XANTENNA_mux_right_ipin_10.mux_l2_in_3__S mux_right_ipin_10.mux_l2_in_2_/S VGND VGND
+ VPWR VPWR sky130_fd_sc_hd__diode_2
XFILLER_61_62 VGND VGND VPWR VPWR sky130_fd_sc_hd__decap_4
XFILLER_61_51 VGND VGND VPWR VPWR sky130_fd_sc_hd__decap_8
XFILLER_6_68 VGND VGND VPWR VPWR sky130_fd_sc_hd__fill_1
XANTENNA_mux_right_ipin_3.sky130_fd_sc_hd__buf_4_0__A mux_right_ipin_3.mux_l4_in_0_/X
+ VGND VGND VPWR VPWR sky130_fd_sc_hd__diode_2
XANTENNA_mux_right_ipin_14.mux_l3_in_1__S mux_right_ipin_14.mux_l3_in_0_/S VGND VGND
+ VPWR VPWR sky130_fd_sc_hd__diode_2
XFILLER_15_33 VGND VGND VPWR VPWR sky130_fd_sc_hd__fill_2
XFILLER_15_88 VGND VGND VPWR VPWR sky130_fd_sc_hd__decap_4
XFILLER_15_99 VGND VGND VPWR VPWR sky130_fd_sc_hd__fill_2
XFILLER_31_54 VGND VGND VPWR VPWR sky130_fd_sc_hd__fill_2
XFILLER_56_84 VGND VGND VPWR VPWR sky130_fd_sc_hd__fill_2
XPHY_160 VGND VPWR sky130_fd_sc_hd__tapvpwrvgnd_1
XPHY_171 VGND VPWR sky130_fd_sc_hd__tapvpwrvgnd_1
XPHY_182 VGND VPWR sky130_fd_sc_hd__tapvpwrvgnd_1
XANTENNA_mux_right_ipin_3.mux_l4_in_0__A0 mux_right_ipin_3.mux_l3_in_1_/X VGND VGND
+ VPWR VPWR sky130_fd_sc_hd__diode_2
XPHY_193 VGND VPWR sky130_fd_sc_hd__tapvpwrvgnd_1
XFILLER_31_113 VGND VGND VPWR VPWR sky130_fd_sc_hd__decap_3
XANTENNA_mux_right_ipin_15.mux_l1_in_0__A0 chany_top_in[0] VGND VGND VPWR VPWR sky130_fd_sc_hd__diode_2
XANTENNA_mux_right_ipin_0.mux_l1_in_0__S mux_right_ipin_0.mux_l1_in_2_/S VGND VGND
+ VPWR VPWR sky130_fd_sc_hd__diode_2
XFILLER_26_32 VGND VGND VPWR VPWR sky130_fd_sc_hd__fill_1
XFILLER_13_102 VGND VGND VPWR VPWR sky130_fd_sc_hd__decap_6
XFILLER_13_135 VGND VGND VPWR VPWR sky130_fd_sc_hd__decap_8
XFILLER_42_97 VGND VGND VPWR VPWR sky130_fd_sc_hd__fill_2
XFILLER_42_86 VGND VGND VPWR VPWR sky130_fd_sc_hd__fill_1
XANTENNA_mem_right_ipin_12.sky130_fd_sc_hd__dfxbp_1_3__D mux_right_ipin_12.mux_l3_in_0_/S
+ VGND VGND VPWR VPWR sky130_fd_sc_hd__diode_2
XANTENNA_mux_right_ipin_5.mux_l2_in_0__A1 mux_right_ipin_5.mux_l1_in_0_/X VGND VGND
+ VPWR VPWR sky130_fd_sc_hd__diode_2
XFILLER_6_109 VGND VGND VPWR VPWR sky130_fd_sc_hd__fill_2
XFILLER_12_23 VGND VGND VPWR VPWR sky130_fd_sc_hd__fill_2
XANTENNA_mem_right_ipin_5.sky130_fd_sc_hd__dfxbp_1_3__D mux_right_ipin_5.mux_l3_in_0_/S
+ VGND VGND VPWR VPWR sky130_fd_sc_hd__diode_2
XFILLER_37_42 VGND VGND VPWR VPWR sky130_fd_sc_hd__fill_2
XFILLER_37_53 VGND VGND VPWR VPWR sky130_fd_sc_hd__fill_2
XFILLER_45_7 VGND VGND VPWR VPWR sky130_fd_sc_hd__decap_12
XFILLER_5_120 VGND VGND VPWR VPWR sky130_fd_sc_hd__fill_2
X_64_ chany_bottom_in[9] chany_top_out[9] VGND VGND VPWR VPWR sky130_fd_sc_hd__buf_2
Xmux_right_ipin_3.mux_l2_in_3_ _31_/HI chany_top_in[14] mux_right_ipin_3.mux_l2_in_2_/S
+ mux_right_ipin_3.mux_l2_in_3_/X VGND VGND VPWR VPWR sky130_fd_sc_hd__mux2_1
XFILLER_59_138 VGND VGND VPWR VPWR sky130_fd_sc_hd__fill_2
XFILLER_58_19 VGND VGND VPWR VPWR sky130_fd_sc_hd__decap_12
XANTENNA_mem_left_ipin_0.sky130_fd_sc_hd__dfxbp_1_0__D ccff_head VGND VGND VPWR VPWR
+ sky130_fd_sc_hd__diode_2
XFILLER_23_55 VGND VGND VPWR VPWR sky130_fd_sc_hd__fill_2
XFILLER_23_77 VGND VGND VPWR VPWR sky130_fd_sc_hd__decap_4
XFILLER_2_145 VGND VGND VPWR VPWR sky130_fd_sc_hd__fill_1
XANTENNA_mux_right_ipin_3.mux_l2_in_2__A1 chany_top_in[8] VGND VGND VPWR VPWR sky130_fd_sc_hd__diode_2
XFILLER_48_85 VGND VGND VPWR VPWR sky130_fd_sc_hd__fill_2
XFILLER_0_15 VGND VGND VPWR VPWR sky130_fd_sc_hd__fill_2
XFILLER_0_37 VGND VGND VPWR VPWR sky130_fd_sc_hd__fill_2
XFILLER_9_46 VGND VGND VPWR VPWR sky130_fd_sc_hd__decap_12
XFILLER_36_3 VGND VGND VPWR VPWR sky130_fd_sc_hd__decap_8
X_47_ chany_top_in[6] chany_bottom_out[6] VGND VGND VPWR VPWR sky130_fd_sc_hd__buf_2
XANTENNA_mux_right_ipin_6.sky130_fd_sc_hd__buf_4_0__A mux_right_ipin_6.mux_l4_in_0_/X
+ VGND VGND VPWR VPWR sky130_fd_sc_hd__diode_2
XANTENNA_mux_right_ipin_13.mux_l2_in_1__A0 chany_bottom_in[10] VGND VGND VPWR VPWR
+ sky130_fd_sc_hd__diode_2
XFILLER_34_21 VGND VGND VPWR VPWR sky130_fd_sc_hd__fill_2
XFILLER_50_75 VGND VGND VPWR VPWR sky130_fd_sc_hd__fill_2
XANTENNA_mux_right_ipin_0.mux_l1_in_1__A0 chany_top_in[3] VGND VGND VPWR VPWR sky130_fd_sc_hd__diode_2
XANTENNA_mux_right_ipin_3.mux_l3_in_1__A1 mux_right_ipin_3.mux_l2_in_2_/X VGND VGND
+ VPWR VPWR sky130_fd_sc_hd__diode_2
XFILLER_52_144 VGND VGND VPWR VPWR sky130_fd_sc_hd__fill_2
XANTENNA_clkbuf_1_0_0_prog_clk_A clkbuf_0_prog_clk/X VGND VGND VPWR VPWR sky130_fd_sc_hd__diode_2
XFILLER_20_23 VGND VGND VPWR VPWR sky130_fd_sc_hd__decap_4
XFILLER_20_45 VGND VGND VPWR VPWR sky130_fd_sc_hd__decap_4
XANTENNA_mux_right_ipin_11.mux_l2_in_3__A0 _25_/HI VGND VGND VPWR VPWR sky130_fd_sc_hd__diode_2
Xmux_right_ipin_3.mux_l4_in_0_ mux_right_ipin_3.mux_l3_in_1_/X mux_right_ipin_3.mux_l3_in_0_/X
+ mux_right_ipin_3.mux_l4_in_0_/S mux_right_ipin_3.mux_l4_in_0_/X VGND VGND VPWR VPWR
+ sky130_fd_sc_hd__mux2_1
XFILLER_45_75 VGND VGND VPWR VPWR sky130_fd_sc_hd__decap_4
XFILLER_45_53 VGND VGND VPWR VPWR sky130_fd_sc_hd__fill_2
XFILLER_61_74 VGND VGND VPWR VPWR sky130_fd_sc_hd__decap_4
XFILLER_6_58 VGND VGND VPWR VPWR sky130_fd_sc_hd__decap_4
XFILLER_6_36 VGND VGND VPWR VPWR sky130_fd_sc_hd__decap_8
XANTENNA_mux_right_ipin_13.mux_l3_in_0__A0 mux_right_ipin_13.mux_l2_in_1_/X VGND VGND
+ VPWR VPWR sky130_fd_sc_hd__diode_2
XANTENNA_mux_right_ipin_4.mux_l2_in_1__S mux_right_ipin_4.mux_l2_in_0_/S VGND VGND
+ VPWR VPWR sky130_fd_sc_hd__diode_2
XFILLER_15_56 VGND VGND VPWR VPWR sky130_fd_sc_hd__fill_2
XFILLER_31_11 VGND VGND VPWR VPWR sky130_fd_sc_hd__decap_3
XFILLER_31_99 VGND VGND VPWR VPWR sky130_fd_sc_hd__fill_1
XFILLER_16_133 VGND VGND VPWR VPWR sky130_fd_sc_hd__decap_12
XPHY_150 VGND VPWR sky130_fd_sc_hd__tapvpwrvgnd_1
XANTENNA_mux_right_ipin_0.mux_l2_in_0__A0 mux_right_ipin_0.mux_l1_in_1_/X VGND VGND
+ VPWR VPWR sky130_fd_sc_hd__diode_2
XPHY_161 VGND VPWR sky130_fd_sc_hd__tapvpwrvgnd_1
XPHY_172 VGND VPWR sky130_fd_sc_hd__tapvpwrvgnd_1
Xmux_right_ipin_8.mux_l2_in_3_ _19_/HI chany_top_in[19] mux_right_ipin_8.mux_l2_in_0_/S
+ mux_right_ipin_8.mux_l2_in_3_/X VGND VGND VPWR VPWR sky130_fd_sc_hd__mux2_1
XPHY_183 VGND VPWR sky130_fd_sc_hd__tapvpwrvgnd_1
XANTENNA_mux_right_ipin_3.mux_l4_in_0__A1 mux_right_ipin_3.mux_l3_in_0_/X VGND VGND
+ VPWR VPWR sky130_fd_sc_hd__diode_2
XPHY_194 VGND VPWR sky130_fd_sc_hd__tapvpwrvgnd_1
Xclkbuf_2_1_0_prog_clk clkbuf_2_1_0_prog_clk/A clkbuf_3_3_0_prog_clk/A VGND VGND VPWR
+ VPWR sky130_fd_sc_hd__clkbuf_1
XFILLER_22_103 VGND VGND VPWR VPWR sky130_fd_sc_hd__fill_2
Xmux_right_ipin_3.mux_l3_in_1_ mux_right_ipin_3.mux_l2_in_3_/X mux_right_ipin_3.mux_l2_in_2_/X
+ mux_right_ipin_3.mux_l3_in_1_/S mux_right_ipin_3.mux_l3_in_1_/X VGND VGND VPWR VPWR
+ sky130_fd_sc_hd__mux2_1
XANTENNA_mux_right_ipin_15.mux_l1_in_0__A1 chany_bottom_in[0] VGND VGND VPWR VPWR
+ sky130_fd_sc_hd__diode_2
XANTENNA_mem_left_ipin_0.sky130_fd_sc_hd__dfxbp_1_3__D mux_left_ipin_0.mux_l3_in_0_/S
+ VGND VGND VPWR VPWR sky130_fd_sc_hd__diode_2
XFILLER_26_11 VGND VGND VPWR VPWR sky130_fd_sc_hd__fill_1
XFILLER_9_118 VGND VGND VPWR VPWR sky130_fd_sc_hd__fill_2
XANTENNA_mem_right_ipin_10.sky130_fd_sc_hd__dfxbp_1_2__CLK clkbuf_3_5_0_prog_clk/X
+ VGND VGND VPWR VPWR sky130_fd_sc_hd__diode_2
XFILLER_10_106 VGND VGND VPWR VPWR sky130_fd_sc_hd__decap_6
XANTENNA_mux_right_ipin_3.mux_l3_in_1__S mux_right_ipin_3.mux_l3_in_1_/S VGND VGND
+ VPWR VPWR sky130_fd_sc_hd__diode_2
XANTENNA_mux_right_ipin_9.sky130_fd_sc_hd__buf_4_0__A mux_right_ipin_9.mux_l4_in_0_/X
+ VGND VGND VPWR VPWR sky130_fd_sc_hd__diode_2
XFILLER_53_53 VGND VGND VPWR VPWR sky130_fd_sc_hd__fill_2
XFILLER_53_31 VGND VGND VPWR VPWR sky130_fd_sc_hd__decap_8
XFILLER_37_98 VGND VGND VPWR VPWR sky130_fd_sc_hd__decap_4
XFILLER_53_97 VGND VGND VPWR VPWR sky130_fd_sc_hd__fill_2
XANTENNA_mux_left_ipin_0.mux_l3_in_1__S mux_left_ipin_0.mux_l3_in_0_/S VGND VGND VPWR
+ VPWR sky130_fd_sc_hd__diode_2
XFILLER_5_132 VGND VGND VPWR VPWR sky130_fd_sc_hd__fill_2
X_63_ chany_bottom_in[10] chany_top_out[10] VGND VGND VPWR VPWR sky130_fd_sc_hd__buf_2
Xmux_right_ipin_3.mux_l2_in_2_ chany_bottom_in[14] chany_top_in[8] mux_right_ipin_3.mux_l2_in_2_/S
+ mux_right_ipin_3.mux_l2_in_2_/X VGND VGND VPWR VPWR sky130_fd_sc_hd__mux2_1
XANTENNA_mux_right_ipin_9.mux_l2_in_2__S mux_right_ipin_9.mux_l2_in_0_/S VGND VGND
+ VPWR VPWR sky130_fd_sc_hd__diode_2
XANTENNA_mem_right_ipin_0.sky130_fd_sc_hd__dfxbp_1_3__CLK clkbuf_3_2_0_prog_clk/X
+ VGND VGND VPWR VPWR sky130_fd_sc_hd__diode_2
XFILLER_4_91 VGND VGND VPWR VPWR sky130_fd_sc_hd__fill_1
XANTENNA_mem_right_ipin_13.sky130_fd_sc_hd__dfxbp_1_3__CLK clkbuf_3_5_0_prog_clk/X
+ VGND VGND VPWR VPWR sky130_fd_sc_hd__diode_2
Xmux_right_ipin_8.mux_l4_in_0_ mux_right_ipin_8.mux_l3_in_1_/X mux_right_ipin_8.mux_l3_in_0_/X
+ mux_right_ipin_8.mux_l4_in_0_/S mux_right_ipin_8.mux_l4_in_0_/X VGND VGND VPWR VPWR
+ sky130_fd_sc_hd__mux2_1
XANTENNA_mux_right_ipin_9.mux_l1_in_0__A0 chany_top_in[0] VGND VGND VPWR VPWR sky130_fd_sc_hd__diode_2
XANTENNA_mux_right_ipin_12.mux_l1_in_1__S mux_right_ipin_12.mux_l1_in_2_/S VGND VGND
+ VPWR VPWR sky130_fd_sc_hd__diode_2
XFILLER_48_97 VGND VGND VPWR VPWR sky130_fd_sc_hd__decap_4
XFILLER_48_64 VGND VGND VPWR VPWR sky130_fd_sc_hd__fill_2
XFILLER_48_42 VGND VGND VPWR VPWR sky130_fd_sc_hd__fill_2
XFILLER_48_20 VGND VGND VPWR VPWR sky130_fd_sc_hd__decap_3
XFILLER_0_27 VGND VGND VPWR VPWR sky130_fd_sc_hd__decap_4
XFILLER_64_63 VGND VGND VPWR VPWR sky130_fd_sc_hd__decap_12
XFILLER_9_25 VGND VGND VPWR VPWR sky130_fd_sc_hd__decap_3
XFILLER_9_58 VGND VGND VPWR VPWR sky130_fd_sc_hd__fill_1
XFILLER_56_109 VGND VGND VPWR VPWR sky130_fd_sc_hd__decap_6
XFILLER_29_3 VGND VGND VPWR VPWR sky130_fd_sc_hd__fill_2
X_46_ chany_top_in[7] chany_bottom_out[7] VGND VGND VPWR VPWR sky130_fd_sc_hd__buf_2
XANTENNA_mux_right_ipin_13.mux_l2_in_1__A1 chany_top_in[2] VGND VGND VPWR VPWR sky130_fd_sc_hd__diode_2
XFILLER_18_67 VGND VGND VPWR VPWR sky130_fd_sc_hd__fill_2
XANTENNA_mux_right_ipin_7.mux_l1_in_2__A0 chany_top_in[8] VGND VGND VPWR VPWR sky130_fd_sc_hd__diode_2
XFILLER_59_74 VGND VGND VPWR VPWR sky130_fd_sc_hd__fill_1
XFILLER_59_52 VGND VGND VPWR VPWR sky130_fd_sc_hd__decap_4
XFILLER_61_123 VGND VGND VPWR VPWR sky130_fd_sc_hd__decap_12
XFILLER_15_9 VGND VGND VPWR VPWR sky130_fd_sc_hd__decap_4
Xmux_right_ipin_8.mux_l3_in_1_ mux_right_ipin_8.mux_l2_in_3_/X mux_right_ipin_8.mux_l2_in_2_/X
+ mux_right_ipin_8.mux_l3_in_0_/S mux_right_ipin_8.mux_l3_in_1_/X VGND VGND VPWR VPWR
+ sky130_fd_sc_hd__mux2_1
XANTENNA_mux_right_ipin_0.mux_l1_in_1__A1 chany_bottom_in[3] VGND VGND VPWR VPWR sky130_fd_sc_hd__diode_2
Xmux_right_ipin_1.sky130_fd_sc_hd__buf_4_0_ mux_right_ipin_1.mux_l4_in_0_/X left_grid_pin_17_
+ VGND VGND VPWR VPWR sky130_fd_sc_hd__buf_4
XFILLER_29_109 VGND VGND VPWR VPWR sky130_fd_sc_hd__decap_3
X_29_ _29_/HI _29_/LO VGND VGND VPWR VPWR sky130_fd_sc_hd__conb_1
XFILLER_20_13 VGND VGND VPWR VPWR sky130_fd_sc_hd__fill_1
XANTENNA_mux_right_ipin_11.mux_l2_in_3__A1 chany_top_in[16] VGND VGND VPWR VPWR sky130_fd_sc_hd__diode_2
XFILLER_20_79 VGND VGND VPWR VPWR sky130_fd_sc_hd__decap_12
XFILLER_43_123 VGND VGND VPWR VPWR sky130_fd_sc_hd__fill_1
XFILLER_43_112 VGND VGND VPWR VPWR sky130_fd_sc_hd__fill_2
XFILLER_28_131 VGND VGND VPWR VPWR sky130_fd_sc_hd__decap_12
XFILLER_29_99 VGND VGND VPWR VPWR sky130_fd_sc_hd__fill_1
XFILLER_61_86 VGND VGND VPWR VPWR sky130_fd_sc_hd__decap_12
XANTENNA_mux_right_ipin_11.mux_l2_in_1__S mux_right_ipin_11.mux_l2_in_0_/S VGND VGND
+ VPWR VPWR sky130_fd_sc_hd__diode_2
XFILLER_45_98 VGND VGND VPWR VPWR sky130_fd_sc_hd__fill_2
XFILLER_43_145 VGND VGND VPWR VPWR sky130_fd_sc_hd__fill_1
Xclkbuf_3_3_0_prog_clk clkbuf_3_3_0_prog_clk/A clkbuf_3_3_0_prog_clk/X VGND VGND VPWR
+ VPWR sky130_fd_sc_hd__clkbuf_1
XANTENNA_mux_right_ipin_13.mux_l3_in_0__A1 mux_right_ipin_13.mux_l2_in_0_/X VGND VGND
+ VPWR VPWR sky130_fd_sc_hd__diode_2
XANTENNA_mux_right_ipin_10.mux_l1_in_0__A0 chany_top_in[1] VGND VGND VPWR VPWR sky130_fd_sc_hd__diode_2
XANTENNA_mem_right_ipin_4.sky130_fd_sc_hd__dfxbp_1_0__CLK clkbuf_3_1_0_prog_clk/X
+ VGND VGND VPWR VPWR sky130_fd_sc_hd__diode_2
XANTENNA_mux_right_ipin_7.mux_l2_in_1__A0 chany_bottom_in[12] VGND VGND VPWR VPWR
+ sky130_fd_sc_hd__diode_2
XFILLER_25_101 VGND VGND VPWR VPWR sky130_fd_sc_hd__fill_2
XFILLER_25_123 VGND VGND VPWR VPWR sky130_fd_sc_hd__fill_2
XFILLER_15_13 VGND VGND VPWR VPWR sky130_fd_sc_hd__fill_1
XFILLER_15_46 VGND VGND VPWR VPWR sky130_fd_sc_hd__fill_2
XFILLER_25_145 VGND VGND VPWR VPWR sky130_fd_sc_hd__fill_1
XFILLER_56_20 VGND VGND VPWR VPWR sky130_fd_sc_hd__decap_8
XFILLER_56_97 VGND VGND VPWR VPWR sky130_fd_sc_hd__fill_1
XANTENNA_mux_right_ipin_0.mux_l2_in_0__A1 mux_right_ipin_0.mux_l1_in_0_/X VGND VGND
+ VPWR VPWR sky130_fd_sc_hd__diode_2
XFILLER_16_112 VGND VGND VPWR VPWR sky130_fd_sc_hd__fill_2
XFILLER_16_145 VGND VGND VPWR VPWR sky130_fd_sc_hd__fill_1
Xmux_right_ipin_8.mux_l2_in_2_ chany_bottom_in[19] chany_top_in[13] mux_right_ipin_8.mux_l2_in_0_/S
+ mux_right_ipin_8.mux_l2_in_2_/X VGND VGND VPWR VPWR sky130_fd_sc_hd__mux2_1
XPHY_140 VGND VPWR sky130_fd_sc_hd__tapvpwrvgnd_1
XPHY_151 VGND VPWR sky130_fd_sc_hd__tapvpwrvgnd_1
XPHY_162 VGND VPWR sky130_fd_sc_hd__tapvpwrvgnd_1
XPHY_173 VGND VPWR sky130_fd_sc_hd__tapvpwrvgnd_1
XPHY_184 VGND VPWR sky130_fd_sc_hd__tapvpwrvgnd_1
XPHY_195 VGND VPWR sky130_fd_sc_hd__tapvpwrvgnd_1
XANTENNA_mem_right_ipin_2.sky130_fd_sc_hd__dfxbp_1_2__D mux_right_ipin_2.mux_l2_in_3_/S
+ VGND VGND VPWR VPWR sky130_fd_sc_hd__diode_2
Xmux_right_ipin_3.mux_l3_in_0_ mux_right_ipin_3.mux_l2_in_1_/X mux_right_ipin_3.mux_l2_in_0_/X
+ mux_right_ipin_3.mux_l3_in_1_/S mux_right_ipin_3.mux_l3_in_0_/X VGND VGND VPWR VPWR
+ sky130_fd_sc_hd__mux2_1
XANTENNA_mux_right_ipin_5.mux_l2_in_3__A0 _33_/HI VGND VGND VPWR VPWR sky130_fd_sc_hd__diode_2
XFILLER_13_115 VGND VGND VPWR VPWR sky130_fd_sc_hd__fill_2
XFILLER_26_23 VGND VGND VPWR VPWR sky130_fd_sc_hd__fill_2
XFILLER_26_78 VGND VGND VPWR VPWR sky130_fd_sc_hd__decap_4
XFILLER_42_55 VGND VGND VPWR VPWR sky130_fd_sc_hd__fill_2
XANTENNA_mem_right_ipin_7.sky130_fd_sc_hd__dfxbp_1_1__CLK clkbuf_3_3_0_prog_clk/X
+ VGND VGND VPWR VPWR sky130_fd_sc_hd__diode_2
XANTENNA_mux_right_ipin_10.mux_l3_in_1__S mux_right_ipin_10.mux_l3_in_1_/S VGND VGND
+ VPWR VPWR sky130_fd_sc_hd__diode_2
XFILLER_3_16 VGND VGND VPWR VPWR sky130_fd_sc_hd__decap_3
XANTENNA_mux_right_ipin_7.mux_l3_in_0__A0 mux_right_ipin_7.mux_l2_in_1_/X VGND VGND
+ VPWR VPWR sky130_fd_sc_hd__diode_2
XFILLER_12_69 VGND VGND VPWR VPWR sky130_fd_sc_hd__fill_2
XFILLER_37_11 VGND VGND VPWR VPWR sky130_fd_sc_hd__fill_2
XFILLER_37_66 VGND VGND VPWR VPWR sky130_fd_sc_hd__fill_2
XFILLER_53_87 VGND VGND VPWR VPWR sky130_fd_sc_hd__fill_1
XFILLER_5_144 VGND VGND VPWR VPWR sky130_fd_sc_hd__fill_2
X_62_ chany_bottom_in[11] chany_top_out[11] VGND VGND VPWR VPWR sky130_fd_sc_hd__buf_2
Xmux_right_ipin_3.mux_l2_in_1_ chany_bottom_in[8] mux_right_ipin_3.mux_l1_in_2_/X
+ mux_right_ipin_3.mux_l2_in_2_/S mux_right_ipin_3.mux_l2_in_1_/X VGND VGND VPWR VPWR
+ sky130_fd_sc_hd__mux2_1
XANTENNA_mem_right_ipin_14.sky130_fd_sc_hd__dfxbp_1_1__D mux_right_ipin_14.mux_l1_in_0_/S
+ VGND VGND VPWR VPWR sky130_fd_sc_hd__diode_2
XANTENNA_mux_right_ipin_9.mux_l1_in_0__A1 chany_bottom_in[0] VGND VGND VPWR VPWR sky130_fd_sc_hd__diode_2
XFILLER_23_13 VGND VGND VPWR VPWR sky130_fd_sc_hd__fill_1
XFILLER_48_32 VGND VGND VPWR VPWR sky130_fd_sc_hd__fill_2
XFILLER_64_75 VGND VGND VPWR VPWR sky130_fd_sc_hd__decap_12
XFILLER_50_7 VGND VGND VPWR VPWR sky130_fd_sc_hd__decap_6
XANTENNA_mem_right_ipin_7.sky130_fd_sc_hd__dfxbp_1_1__D mux_right_ipin_7.mux_l1_in_2_/S
+ VGND VGND VPWR VPWR sky130_fd_sc_hd__diode_2
X_45_ chany_top_in[8] chany_bottom_out[8] VGND VGND VPWR VPWR sky130_fd_sc_hd__buf_2
XFILLER_55_132 VGND VGND VPWR VPWR sky130_fd_sc_hd__fill_2
XFILLER_18_13 VGND VGND VPWR VPWR sky130_fd_sc_hd__fill_1
XFILLER_18_24 VGND VGND VPWR VPWR sky130_fd_sc_hd__decap_6
Xmux_right_ipin_3.mux_l1_in_2_ chany_top_in[4] chany_bottom_in[4] mux_right_ipin_3.mux_l1_in_2_/S
+ mux_right_ipin_3.mux_l1_in_2_/X VGND VGND VPWR VPWR sky130_fd_sc_hd__mux2_1
XANTENNA_mux_right_ipin_7.mux_l1_in_2__A1 chany_bottom_in[8] VGND VGND VPWR VPWR sky130_fd_sc_hd__diode_2
Xmux_right_ipin_12.mux_l2_in_3_ _26_/HI chany_top_in[17] mux_right_ipin_12.mux_l2_in_1_/S
+ mux_right_ipin_12.mux_l2_in_3_/X VGND VGND VPWR VPWR sky130_fd_sc_hd__mux2_1
XFILLER_59_31 VGND VGND VPWR VPWR sky130_fd_sc_hd__fill_2
XFILLER_61_135 VGND VGND VPWR VPWR sky130_fd_sc_hd__decap_8
XFILLER_41_3 VGND VGND VPWR VPWR sky130_fd_sc_hd__decap_12
Xmux_right_ipin_8.mux_l3_in_0_ mux_right_ipin_8.mux_l2_in_1_/X mux_right_ipin_8.mux_l2_in_0_/X
+ mux_right_ipin_8.mux_l3_in_0_/S mux_right_ipin_8.mux_l3_in_0_/X VGND VGND VPWR VPWR
+ sky130_fd_sc_hd__mux2_1
X_28_ _28_/HI _28_/LO VGND VGND VPWR VPWR sky130_fd_sc_hd__conb_1
XFILLER_37_121 VGND VGND VPWR VPWR sky130_fd_sc_hd__fill_1