* NGSPICE file created from cby_0__1_.ext - technology: sky130A

* Black-box entry subcircuit for sky130_fd_sc_hd__fill_2 abstract view
.subckt sky130_fd_sc_hd__fill_2 VGND VNB VPB VPWR
.ends

* Black-box entry subcircuit for sky130_fd_sc_hd__decap_12 abstract view
.subckt sky130_fd_sc_hd__decap_12 VGND VNB VPB VPWR
.ends

* Black-box entry subcircuit for sky130_fd_sc_hd__decap_3 abstract view
.subckt sky130_fd_sc_hd__decap_3 VGND VNB VPB VPWR
.ends

* Black-box entry subcircuit for sky130_fd_sc_hd__fill_1 abstract view
.subckt sky130_fd_sc_hd__fill_1 VGND VNB VPB VPWR
.ends

* Black-box entry subcircuit for sky130_fd_sc_hd__decap_4 abstract view
.subckt sky130_fd_sc_hd__decap_4 VGND VNB VPB VPWR
.ends

* Black-box entry subcircuit for sky130_fd_sc_hd__decap_8 abstract view
.subckt sky130_fd_sc_hd__decap_8 VGND VNB VPB VPWR
.ends

* Black-box entry subcircuit for sky130_fd_sc_hd__buf_2 abstract view
.subckt sky130_fd_sc_hd__buf_2 A X VGND VNB VPB VPWR
.ends

* Black-box entry subcircuit for sky130_fd_sc_hd__decap_6 abstract view
.subckt sky130_fd_sc_hd__decap_6 VGND VNB VPB VPWR
.ends

* Black-box entry subcircuit for sky130_fd_sc_hd__tapvpwrvgnd_1 abstract view
.subckt sky130_fd_sc_hd__tapvpwrvgnd_1 VGND VPWR
.ends

* Black-box entry subcircuit for sky130_fd_sc_hd__dfxtp_1 abstract view
.subckt sky130_fd_sc_hd__dfxtp_1 D Q CLK VGND VNB VPB VPWR
.ends

* Black-box entry subcircuit for sky130_fd_sc_hd__clkbuf_16 abstract view
.subckt sky130_fd_sc_hd__clkbuf_16 A X VGND VNB VPB VPWR
.ends

* Black-box entry subcircuit for sky130_fd_sc_hd__buf_4 abstract view
.subckt sky130_fd_sc_hd__buf_4 A X VGND VNB VPB VPWR
.ends

* Black-box entry subcircuit for sky130_fd_sc_hd__conb_1 abstract view
.subckt sky130_fd_sc_hd__conb_1 HI LO VGND VNB VPB VPWR
.ends

* Black-box entry subcircuit for sky130_fd_sc_hd__mux2_1 abstract view
.subckt sky130_fd_sc_hd__mux2_1 A0 A1 S X VGND VNB VPB VPWR
.ends

* Black-box entry subcircuit for sky130_fd_sc_hd__clkbuf_1 abstract view
.subckt sky130_fd_sc_hd__clkbuf_1 A X VGND VNB VPB VPWR
.ends

.subckt cby_0__1_ ccff_head ccff_tail chany_bottom_in[0] chany_bottom_in[10] chany_bottom_in[11]
+ chany_bottom_in[12] chany_bottom_in[13] chany_bottom_in[14] chany_bottom_in[15]
+ chany_bottom_in[16] chany_bottom_in[17] chany_bottom_in[18] chany_bottom_in[19]
+ chany_bottom_in[1] chany_bottom_in[2] chany_bottom_in[3] chany_bottom_in[4] chany_bottom_in[5]
+ chany_bottom_in[6] chany_bottom_in[7] chany_bottom_in[8] chany_bottom_in[9] chany_bottom_out[0]
+ chany_bottom_out[10] chany_bottom_out[11] chany_bottom_out[12] chany_bottom_out[13]
+ chany_bottom_out[14] chany_bottom_out[15] chany_bottom_out[16] chany_bottom_out[17]
+ chany_bottom_out[18] chany_bottom_out[19] chany_bottom_out[1] chany_bottom_out[2]
+ chany_bottom_out[3] chany_bottom_out[4] chany_bottom_out[5] chany_bottom_out[6]
+ chany_bottom_out[7] chany_bottom_out[8] chany_bottom_out[9] chany_top_in[0] chany_top_in[10]
+ chany_top_in[11] chany_top_in[12] chany_top_in[13] chany_top_in[14] chany_top_in[15]
+ chany_top_in[16] chany_top_in[17] chany_top_in[18] chany_top_in[19] chany_top_in[1]
+ chany_top_in[2] chany_top_in[3] chany_top_in[4] chany_top_in[5] chany_top_in[6]
+ chany_top_in[7] chany_top_in[8] chany_top_in[9] chany_top_out[0] chany_top_out[10]
+ chany_top_out[11] chany_top_out[12] chany_top_out[13] chany_top_out[14] chany_top_out[15]
+ chany_top_out[16] chany_top_out[17] chany_top_out[18] chany_top_out[19] chany_top_out[1]
+ chany_top_out[2] chany_top_out[3] chany_top_out[4] chany_top_out[5] chany_top_out[6]
+ chany_top_out[7] chany_top_out[8] chany_top_out[9] left_grid_pin_0_ prog_clk VPWR
+ VGND
XFILLER_3_89 VGND VGND VPWR VPWR sky130_fd_sc_hd__fill_2
XFILLER_13_155 VGND VGND VPWR VPWR sky130_fd_sc_hd__fill_2
XFILLER_6_129 VGND VGND VPWR VPWR sky130_fd_sc_hd__decap_12
XFILLER_12_32 VGND VGND VPWR VPWR sky130_fd_sc_hd__decap_12
XFILLER_23_86 VGND VGND VPWR VPWR sky130_fd_sc_hd__decap_12
XFILLER_2_154 VGND VGND VPWR VPWR sky130_fd_sc_hd__decap_3
XFILLER_2_121 VGND VGND VPWR VPWR sky130_fd_sc_hd__fill_1
XFILLER_20_32 VGND VGND VPWR VPWR sky130_fd_sc_hd__decap_12
XFILLER_6_56 VGND VGND VPWR VPWR sky130_fd_sc_hd__decap_12
XFILLER_13_3 VGND VGND VPWR VPWR sky130_fd_sc_hd__decap_12
XFILLER_13_123 VGND VGND VPWR VPWR sky130_fd_sc_hd__decap_12
XFILLER_12_44 VGND VGND VPWR VPWR sky130_fd_sc_hd__decap_12
XFILLER_12_88 VGND VGND VPWR VPWR sky130_fd_sc_hd__decap_4
XFILLER_23_98 VGND VGND VPWR VPWR sky130_fd_sc_hd__decap_12
XFILLER_18_32 VGND VGND VPWR VPWR sky130_fd_sc_hd__decap_12
XFILLER_20_44 VGND VGND VPWR VPWR sky130_fd_sc_hd__decap_12
XFILLER_6_68 VGND VGND VPWR VPWR sky130_fd_sc_hd__decap_12
XFILLER_16_154 VGND VGND VPWR VPWR sky130_fd_sc_hd__decap_3
XFILLER_13_135 VGND VGND VPWR VPWR sky130_fd_sc_hd__decap_12
XFILLER_10_105 VGND VGND VPWR VPWR sky130_fd_sc_hd__decap_12
XFILLER_12_56 VGND VGND VPWR VPWR sky130_fd_sc_hd__decap_4
XFILLER_3_3 VGND VGND VPWR VPWR sky130_fd_sc_hd__decap_12
XFILLER_0_15 VGND VGND VPWR VPWR sky130_fd_sc_hd__decap_12
XFILLER_18_44 VGND VGND VPWR VPWR sky130_fd_sc_hd__decap_12
XFILLER_20_56 VGND VGND VPWR VPWR sky130_fd_sc_hd__decap_12
XFILLER_13_114 VGND VGND VPWR VPWR sky130_fd_sc_hd__decap_8
XFILLER_13_147 VGND VGND VPWR VPWR sky130_fd_sc_hd__decap_8
XFILLER_3_15 VGND VGND VPWR VPWR sky130_fd_sc_hd__decap_12
XFILLER_10_117 VGND VGND VPWR VPWR sky130_fd_sc_hd__decap_12
XFILLER_5_110 VGND VGND VPWR VPWR sky130_fd_sc_hd__decap_12
XFILLER_2_102 VGND VGND VPWR VPWR sky130_fd_sc_hd__fill_1
XFILLER_0_27 VGND VGND VPWR VPWR sky130_fd_sc_hd__decap_4
XFILLER_18_56 VGND VGND VPWR VPWR sky130_fd_sc_hd__decap_12
X_29_ chany_top_in[8] chany_bottom_out[8] VGND VGND VPWR VPWR sky130_fd_sc_hd__buf_2
XFILLER_20_68 VGND VGND VPWR VPWR sky130_fd_sc_hd__decap_12
XFILLER_6_15 VGND VGND VPWR VPWR sky130_fd_sc_hd__decap_12
XFILLER_11_3 VGND VGND VPWR VPWR sky130_fd_sc_hd__decap_12
XFILLER_3_38 VGND VGND VPWR VPWR sky130_fd_sc_hd__fill_1
XFILLER_3_27 VGND VGND VPWR VPWR sky130_fd_sc_hd__fill_1
XFILLER_3_49 VGND VGND VPWR VPWR sky130_fd_sc_hd__fill_2
XFILLER_8_141 VGND VGND VPWR VPWR sky130_fd_sc_hd__decap_12
XFILLER_10_129 VGND VGND VPWR VPWR sky130_fd_sc_hd__decap_12
XFILLER_5_155 VGND VGND VPWR VPWR sky130_fd_sc_hd__fill_2
XFILLER_4_70 VGND VGND VPWR VPWR sky130_fd_sc_hd__fill_2
XFILLER_9_15 VGND VGND VPWR VPWR sky130_fd_sc_hd__decap_12
XFILLER_9_59 VGND VGND VPWR VPWR sky130_fd_sc_hd__fill_2
XFILLER_18_68 VGND VGND VPWR VPWR sky130_fd_sc_hd__decap_12
X_28_ chany_top_in[9] chany_bottom_out[9] VGND VGND VPWR VPWR sky130_fd_sc_hd__buf_2
XFILLER_19_110 VGND VGND VPWR VPWR sky130_fd_sc_hd__decap_12
XFILLER_6_27 VGND VGND VPWR VPWR sky130_fd_sc_hd__decap_4
XFILLER_10_80 VGND VGND VPWR VPWR sky130_fd_sc_hd__decap_12
XFILLER_21_90 VGND VGND VPWR VPWR sky130_fd_sc_hd__decap_12
XFILLER_22_105 VGND VGND VPWR VPWR sky130_fd_sc_hd__decap_12
XFILLER_12_15 VGND VGND VPWR VPWR sky130_fd_sc_hd__decap_12
XFILLER_5_123 VGND VGND VPWR VPWR sky130_fd_sc_hd__decap_12
XFILLER_4_82 VGND VGND VPWR VPWR sky130_fd_sc_hd__decap_3
XFILLER_2_126 VGND VGND VPWR VPWR sky130_fd_sc_hd__decap_12
XFILLER_9_27 VGND VGND VPWR VPWR sky130_fd_sc_hd__decap_12
XFILLER_1_3 VGND VGND VPWR VPWR sky130_fd_sc_hd__decap_12
XFILLER_1_94 VGND VGND VPWR VPWR sky130_fd_sc_hd__decap_12
X_27_ chany_top_in[10] chany_bottom_out[10] VGND VGND VPWR VPWR sky130_fd_sc_hd__buf_2
XFILLER_20_15 VGND VGND VPWR VPWR sky130_fd_sc_hd__decap_12
XFILLER_19_155 VGND VGND VPWR VPWR sky130_fd_sc_hd__fill_2
XFILLER_15_15 VGND VGND VPWR VPWR sky130_fd_sc_hd__decap_12
XFILLER_15_59 VGND VGND VPWR VPWR sky130_fd_sc_hd__fill_2
XFILLER_21_80 VGND VGND VPWR VPWR sky130_fd_sc_hd__decap_6
XFILLER_22_117 VGND VGND VPWR VPWR sky130_fd_sc_hd__decap_12
XPHY_0 VGND VGND VPWR VPWR sky130_fd_sc_hd__decap_3
XFILLER_8_154 VGND VGND VPWR VPWR sky130_fd_sc_hd__decap_3
XFILLER_12_27 VGND VGND VPWR VPWR sky130_fd_sc_hd__decap_4
XFILLER_5_135 VGND VGND VPWR VPWR sky130_fd_sc_hd__decap_12
XFILLER_23_59 VGND VGND VPWR VPWR sky130_fd_sc_hd__fill_2
XFILLER_23_15 VGND VGND VPWR VPWR sky130_fd_sc_hd__decap_12
XFILLER_2_138 VGND VGND VPWR VPWR sky130_fd_sc_hd__decap_12
XFILLER_9_39 VGND VGND VPWR VPWR sky130_fd_sc_hd__decap_12
XFILLER_18_15 VGND VGND VPWR VPWR sky130_fd_sc_hd__decap_12
XFILLER_20_27 VGND VGND VPWR VPWR sky130_fd_sc_hd__decap_4
XFILLER_1_62 VGND VGND VPWR VPWR sky130_fd_sc_hd__decap_12
XFILLER_1_51 VGND VGND VPWR VPWR sky130_fd_sc_hd__decap_8
X_26_ chany_top_in[11] chany_bottom_out[11] VGND VGND VPWR VPWR sky130_fd_sc_hd__buf_2
XFILLER_19_123 VGND VGND VPWR VPWR sky130_fd_sc_hd__decap_12
XFILLER_10_93 VGND VGND VPWR VPWR sky130_fd_sc_hd__decap_12
X_09_ chany_bottom_in[8] chany_top_out[8] VGND VGND VPWR VPWR sky130_fd_sc_hd__buf_2
XFILLER_15_27 VGND VGND VPWR VPWR sky130_fd_sc_hd__decap_12
XPHY_110 VGND VPWR sky130_fd_sc_hd__tapvpwrvgnd_1
XFILLER_22_129 VGND VGND VPWR VPWR sky130_fd_sc_hd__decap_12
XPHY_1 VGND VGND VPWR VPWR sky130_fd_sc_hd__decap_3
Xmem_right_ipin_0.sky130_fd_sc_hd__dfxtp_1_3_ mux_right_ipin_0.mux_l3_in_0_/S ccff_tail
+ clkbuf_1_1_0_prog_clk/X VGND VGND VPWR VPWR sky130_fd_sc_hd__dfxtp_1
XFILLER_5_147 VGND VGND VPWR VPWR sky130_fd_sc_hd__decap_8
XFILLER_23_27 VGND VGND VPWR VPWR sky130_fd_sc_hd__decap_12
XFILLER_2_117 VGND VGND VPWR VPWR sky130_fd_sc_hd__decap_4
XFILLER_18_27 VGND VGND VPWR VPWR sky130_fd_sc_hd__decap_4
X_25_ chany_top_in[12] chany_bottom_out[12] VGND VGND VPWR VPWR sky130_fd_sc_hd__buf_2
XFILLER_1_74 VGND VGND VPWR VPWR sky130_fd_sc_hd__decap_12
XFILLER_19_135 VGND VGND VPWR VPWR sky130_fd_sc_hd__decap_12
X_08_ chany_bottom_in[9] chany_top_out[9] VGND VGND VPWR VPWR sky130_fd_sc_hd__buf_2
XPHY_100 VGND VPWR sky130_fd_sc_hd__tapvpwrvgnd_1
XFILLER_16_105 VGND VGND VPWR VPWR sky130_fd_sc_hd__decap_12
XFILLER_15_39 VGND VGND VPWR VPWR sky130_fd_sc_hd__decap_12
XPHY_111 VGND VPWR sky130_fd_sc_hd__tapvpwrvgnd_1
XFILLER_21_60 VGND VGND VPWR VPWR sky130_fd_sc_hd__fill_1
XPHY_2 VGND VGND VPWR VPWR sky130_fd_sc_hd__decap_3
XFILLER_7_51 VGND VGND VPWR VPWR sky130_fd_sc_hd__decap_8
XFILLER_7_62 VGND VGND VPWR VPWR sky130_fd_sc_hd__decap_12
XFILLER_16_93 VGND VGND VPWR VPWR sky130_fd_sc_hd__decap_12
Xmem_right_ipin_0.sky130_fd_sc_hd__dfxtp_1_2_ mux_right_ipin_0.mux_l2_in_2_/S mux_right_ipin_0.mux_l3_in_0_/S
+ clkbuf_1_1_0_prog_clk/X VGND VGND VPWR VPWR sky130_fd_sc_hd__dfxtp_1
XFILLER_23_39 VGND VGND VPWR VPWR sky130_fd_sc_hd__decap_12
XFILLER_2_107 VGND VGND VPWR VPWR sky130_fd_sc_hd__decap_6
X_41_ chany_bottom_in[16] chany_top_out[16] VGND VGND VPWR VPWR sky130_fd_sc_hd__buf_2
X_24_ chany_top_in[13] chany_bottom_out[13] VGND VGND VPWR VPWR sky130_fd_sc_hd__buf_2
XFILLER_1_86 VGND VGND VPWR VPWR sky130_fd_sc_hd__decap_4
XFILLER_19_147 VGND VGND VPWR VPWR sky130_fd_sc_hd__decap_8
X_07_ chany_bottom_in[10] chany_top_out[10] VGND VGND VPWR VPWR sky130_fd_sc_hd__buf_2
XPHY_112 VGND VPWR sky130_fd_sc_hd__tapvpwrvgnd_1
XPHY_101 VGND VPWR sky130_fd_sc_hd__tapvpwrvgnd_1
XFILLER_16_117 VGND VGND VPWR VPWR sky130_fd_sc_hd__decap_12
XPHY_3 VGND VGND VPWR VPWR sky130_fd_sc_hd__decap_3
XFILLER_7_74 VGND VGND VPWR VPWR sky130_fd_sc_hd__decap_12
XFILLER_13_109 VGND VGND VPWR VPWR sky130_fd_sc_hd__fill_2
Xmem_right_ipin_0.sky130_fd_sc_hd__dfxtp_1_1_ mux_right_ipin_0.mux_l1_in_2_/S mux_right_ipin_0.mux_l2_in_2_/S
+ clkbuf_1_0_0_prog_clk/X VGND VGND VPWR VPWR sky130_fd_sc_hd__dfxtp_1
XFILLER_4_64 VGND VGND VPWR VPWR sky130_fd_sc_hd__fill_2
XFILLER_4_97 VGND VGND VPWR VPWR sky130_fd_sc_hd__fill_2
X_40_ chany_bottom_in[17] chany_top_out[17] VGND VGND VPWR VPWR sky130_fd_sc_hd__buf_2
XFILLER_13_51 VGND VGND VPWR VPWR sky130_fd_sc_hd__fill_1
XFILLER_13_62 VGND VGND VPWR VPWR sky130_fd_sc_hd__decap_4
XFILLER_24_94 VGND VGND VPWR VPWR sky130_fd_sc_hd__decap_12
X_23_ chany_top_in[14] chany_bottom_out[14] VGND VGND VPWR VPWR sky130_fd_sc_hd__buf_2
X_06_ chany_bottom_in[11] chany_top_out[11] VGND VGND VPWR VPWR sky130_fd_sc_hd__buf_2
XPHY_113 VGND VPWR sky130_fd_sc_hd__tapvpwrvgnd_1
XFILLER_21_62 VGND VGND VPWR VPWR sky130_fd_sc_hd__fill_2
XFILLER_21_40 VGND VGND VPWR VPWR sky130_fd_sc_hd__decap_4
XPHY_102 VGND VPWR sky130_fd_sc_hd__tapvpwrvgnd_1
XFILLER_16_129 VGND VGND VPWR VPWR sky130_fd_sc_hd__decap_12
XPHY_4 VGND VGND VPWR VPWR sky130_fd_sc_hd__decap_3
XFILLER_7_86 VGND VGND VPWR VPWR sky130_fd_sc_hd__decap_12
Xmem_right_ipin_0.sky130_fd_sc_hd__dfxtp_1_0_ ccff_head mux_right_ipin_0.mux_l1_in_2_/S
+ clkbuf_1_0_0_prog_clk/X VGND VGND VPWR VPWR sky130_fd_sc_hd__dfxtp_1
XFILLER_16_62 VGND VGND VPWR VPWR sky130_fd_sc_hd__decap_12
XFILLER_12_154 VGND VGND VPWR VPWR sky130_fd_sc_hd__decap_3
XFILLER_4_32 VGND VGND VPWR VPWR sky130_fd_sc_hd__decap_12
XFILLER_4_76 VGND VGND VPWR VPWR sky130_fd_sc_hd__fill_2
X_22_ chany_top_in[15] chany_bottom_out[15] VGND VGND VPWR VPWR sky130_fd_sc_hd__buf_2
XFILLER_19_62 VGND VGND VPWR VPWR sky130_fd_sc_hd__decap_12
XFILLER_19_51 VGND VGND VPWR VPWR sky130_fd_sc_hd__decap_8
XFILLER_18_3 VGND VGND VPWR VPWR sky130_fd_sc_hd__decap_12
X_05_ chany_bottom_in[12] chany_top_out[12] VGND VGND VPWR VPWR sky130_fd_sc_hd__buf_2
XPHY_114 VGND VPWR sky130_fd_sc_hd__tapvpwrvgnd_1
XPHY_103 VGND VPWR sky130_fd_sc_hd__tapvpwrvgnd_1
XPHY_5 VGND VGND VPWR VPWR sky130_fd_sc_hd__decap_3
XFILLER_7_98 VGND VGND VPWR VPWR sky130_fd_sc_hd__decap_12
XFILLER_21_155 VGND VGND VPWR VPWR sky130_fd_sc_hd__fill_2
XFILLER_16_74 VGND VGND VPWR VPWR sky130_fd_sc_hd__decap_12
XFILLER_24_63 VGND VGND VPWR VPWR sky130_fd_sc_hd__decap_12
X_21_ chany_top_in[16] chany_bottom_out[16] VGND VGND VPWR VPWR sky130_fd_sc_hd__buf_2
XFILLER_19_74 VGND VGND VPWR VPWR sky130_fd_sc_hd__decap_12
XFILLER_10_32 VGND VGND VPWR VPWR sky130_fd_sc_hd__decap_12
X_04_ chany_bottom_in[13] chany_top_out[13] VGND VGND VPWR VPWR sky130_fd_sc_hd__buf_2
XPHY_115 VGND VPWR sky130_fd_sc_hd__tapvpwrvgnd_1
XPHY_104 VGND VPWR sky130_fd_sc_hd__tapvpwrvgnd_1
XPHY_6 VGND VGND VPWR VPWR sky130_fd_sc_hd__decap_3
XFILLER_21_123 VGND VGND VPWR VPWR sky130_fd_sc_hd__decap_12
XFILLER_16_86 VGND VGND VPWR VPWR sky130_fd_sc_hd__decap_6
XFILLER_8_105 VGND VGND VPWR VPWR sky130_fd_sc_hd__decap_12
XFILLER_4_89 VGND VGND VPWR VPWR sky130_fd_sc_hd__decap_3
XFILLER_1_155 VGND VGND VPWR VPWR sky130_fd_sc_hd__fill_2
XFILLER_8_3 VGND VGND VPWR VPWR sky130_fd_sc_hd__decap_12
XFILLER_13_76 VGND VGND VPWR VPWR sky130_fd_sc_hd__decap_6
XFILLER_13_98 VGND VGND VPWR VPWR sky130_fd_sc_hd__fill_2
XFILLER_24_75 VGND VGND VPWR VPWR sky130_fd_sc_hd__decap_12
X_20_ chany_top_in[17] chany_bottom_out[17] VGND VGND VPWR VPWR sky130_fd_sc_hd__buf_2
XFILLER_10_44 VGND VGND VPWR VPWR sky130_fd_sc_hd__decap_12
Xclkbuf_0_prog_clk prog_clk clkbuf_0_prog_clk/X VGND VGND VPWR VPWR sky130_fd_sc_hd__clkbuf_16
XFILLER_19_86 VGND VGND VPWR VPWR sky130_fd_sc_hd__decap_12
X_03_ chany_bottom_in[14] chany_top_out[14] VGND VGND VPWR VPWR sky130_fd_sc_hd__buf_2
XPHY_116 VGND VPWR sky130_fd_sc_hd__tapvpwrvgnd_1
XPHY_105 VGND VPWR sky130_fd_sc_hd__tapvpwrvgnd_1
XFILLER_21_32 VGND VGND VPWR VPWR sky130_fd_sc_hd__decap_4
XPHY_7 VGND VGND VPWR VPWR sky130_fd_sc_hd__decap_3
XFILLER_15_121 VGND VGND VPWR VPWR sky130_fd_sc_hd__fill_1
XFILLER_23_3 VGND VGND VPWR VPWR sky130_fd_sc_hd__decap_12
XFILLER_21_135 VGND VGND VPWR VPWR sky130_fd_sc_hd__decap_12
XFILLER_21_102 VGND VGND VPWR VPWR sky130_fd_sc_hd__decap_12
XFILLER_16_32 VGND VGND VPWR VPWR sky130_fd_sc_hd__decap_12
XFILLER_8_117 VGND VGND VPWR VPWR sky130_fd_sc_hd__decap_12
XFILLER_12_102 VGND VGND VPWR VPWR sky130_fd_sc_hd__fill_2
XFILLER_12_113 VGND VGND VPWR VPWR sky130_fd_sc_hd__decap_12
XFILLER_1_123 VGND VGND VPWR VPWR sky130_fd_sc_hd__decap_12
XFILLER_13_66 VGND VGND VPWR VPWR sky130_fd_sc_hd__fill_1
XFILLER_24_87 VGND VGND VPWR VPWR sky130_fd_sc_hd__decap_6
XFILLER_24_32 VGND VGND VPWR VPWR sky130_fd_sc_hd__decap_12
XFILLER_10_56 VGND VGND VPWR VPWR sky130_fd_sc_hd__decap_12
XFILLER_19_98 VGND VGND VPWR VPWR sky130_fd_sc_hd__decap_12
XFILLER_18_141 VGND VGND VPWR VPWR sky130_fd_sc_hd__decap_12
X_02_ chany_bottom_in[15] chany_top_out[15] VGND VGND VPWR VPWR sky130_fd_sc_hd__buf_2
XPHY_106 VGND VPWR sky130_fd_sc_hd__tapvpwrvgnd_1
XFILLER_16_3 VGND VGND VPWR VPWR sky130_fd_sc_hd__decap_12
XFILLER_15_155 VGND VGND VPWR VPWR sky130_fd_sc_hd__fill_2
XPHY_8 VGND VGND VPWR VPWR sky130_fd_sc_hd__decap_3
XFILLER_21_147 VGND VGND VPWR VPWR sky130_fd_sc_hd__decap_8
XFILLER_21_114 VGND VGND VPWR VPWR sky130_fd_sc_hd__decap_8
XFILLER_16_44 VGND VGND VPWR VPWR sky130_fd_sc_hd__fill_2
XFILLER_12_125 VGND VGND VPWR VPWR sky130_fd_sc_hd__decap_12
XFILLER_8_129 VGND VGND VPWR VPWR sky130_fd_sc_hd__decap_12
XFILLER_4_121 VGND VGND VPWR VPWR sky130_fd_sc_hd__decap_12
XFILLER_4_154 VGND VGND VPWR VPWR sky130_fd_sc_hd__decap_3
Xmux_right_ipin_0.sky130_fd_sc_hd__buf_4_0_ mux_right_ipin_0.mux_l4_in_0_/X left_grid_pin_0_
+ VGND VGND VPWR VPWR sky130_fd_sc_hd__buf_4
XFILLER_1_135 VGND VGND VPWR VPWR sky130_fd_sc_hd__decap_12
XFILLER_24_44 VGND VGND VPWR VPWR sky130_fd_sc_hd__decap_12
XFILLER_1_59 VGND VGND VPWR VPWR sky130_fd_sc_hd__fill_2
XFILLER_1_15 VGND VGND VPWR VPWR sky130_fd_sc_hd__decap_12
XFILLER_10_68 VGND VGND VPWR VPWR sky130_fd_sc_hd__decap_12
X_01_ _01_/HI _01_/LO VGND VGND VPWR VPWR sky130_fd_sc_hd__conb_1
XFILLER_24_156 VGND VGND VPWR VPWR sky130_fd_sc_hd__fill_1
XPHY_107 VGND VPWR sky130_fd_sc_hd__tapvpwrvgnd_1
XPHY_9 VGND VGND VPWR VPWR sky130_fd_sc_hd__decap_3
XFILLER_15_123 VGND VGND VPWR VPWR sky130_fd_sc_hd__decap_12
XFILLER_12_137 VGND VGND VPWR VPWR sky130_fd_sc_hd__decap_12
XFILLER_4_15 VGND VGND VPWR VPWR sky130_fd_sc_hd__decap_12
XFILLER_4_48 VGND VGND VPWR VPWR sky130_fd_sc_hd__decap_12
XFILLER_4_133 VGND VGND VPWR VPWR sky130_fd_sc_hd__decap_12
XFILLER_1_147 VGND VGND VPWR VPWR sky130_fd_sc_hd__decap_8
XFILLER_24_56 VGND VGND VPWR VPWR sky130_fd_sc_hd__decap_6
XFILLER_1_27 VGND VGND VPWR VPWR sky130_fd_sc_hd__decap_12
XFILLER_6_3 VGND VGND VPWR VPWR sky130_fd_sc_hd__decap_12
XFILLER_18_154 VGND VGND VPWR VPWR sky130_fd_sc_hd__decap_3
XPHY_108 VGND VPWR sky130_fd_sc_hd__tapvpwrvgnd_1
XFILLER_21_68 VGND VGND VPWR VPWR sky130_fd_sc_hd__decap_12
XFILLER_7_15 VGND VGND VPWR VPWR sky130_fd_sc_hd__decap_12
XFILLER_7_59 VGND VGND VPWR VPWR sky130_fd_sc_hd__fill_2
XFILLER_15_135 VGND VGND VPWR VPWR sky130_fd_sc_hd__decap_12
XFILLER_12_149 VGND VGND VPWR VPWR sky130_fd_sc_hd__decap_4
XFILLER_21_3 VGND VGND VPWR VPWR sky130_fd_sc_hd__decap_12
XFILLER_4_27 VGND VGND VPWR VPWR sky130_fd_sc_hd__decap_4
XFILLER_4_145 VGND VGND VPWR VPWR sky130_fd_sc_hd__decap_8
Xmux_right_ipin_0.mux_l2_in_3_ _01_/HI chany_top_in[16] mux_right_ipin_0.mux_l2_in_2_/S
+ mux_right_ipin_0.mux_l2_in_3_/X VGND VGND VPWR VPWR sky130_fd_sc_hd__mux2_1
XFILLER_1_39 VGND VGND VPWR VPWR sky130_fd_sc_hd__decap_12
XFILLER_10_15 VGND VGND VPWR VPWR sky130_fd_sc_hd__decap_12
Xmux_right_ipin_0.mux_l4_in_0_ mux_right_ipin_0.mux_l3_in_1_/X mux_right_ipin_0.mux_l3_in_0_/X
+ ccff_tail mux_right_ipin_0.mux_l4_in_0_/X VGND VGND VPWR VPWR sky130_fd_sc_hd__mux2_1
XFILLER_24_125 VGND VGND VPWR VPWR sky130_fd_sc_hd__decap_12
XPHY_109 VGND VPWR sky130_fd_sc_hd__tapvpwrvgnd_1
XFILLER_2_93 VGND VGND VPWR VPWR sky130_fd_sc_hd__fill_1
XFILLER_2_60 VGND VGND VPWR VPWR sky130_fd_sc_hd__fill_2
XFILLER_15_147 VGND VGND VPWR VPWR sky130_fd_sc_hd__decap_8
XFILLER_7_27 VGND VGND VPWR VPWR sky130_fd_sc_hd__decap_12
XFILLER_15_103 VGND VGND VPWR VPWR sky130_fd_sc_hd__decap_12
Xmux_right_ipin_0.mux_l3_in_1_ mux_right_ipin_0.mux_l2_in_3_/X mux_right_ipin_0.mux_l2_in_2_/X
+ mux_right_ipin_0.mux_l3_in_0_/S mux_right_ipin_0.mux_l3_in_1_/X VGND VGND VPWR VPWR
+ sky130_fd_sc_hd__mux2_1
XFILLER_7_110 VGND VGND VPWR VPWR sky130_fd_sc_hd__decap_12
XFILLER_14_3 VGND VGND VPWR VPWR sky130_fd_sc_hd__decap_12
Xmux_right_ipin_0.mux_l2_in_2_ chany_bottom_in[16] chany_top_in[10] mux_right_ipin_0.mux_l2_in_2_/S
+ mux_right_ipin_0.mux_l2_in_2_/X VGND VGND VPWR VPWR sky130_fd_sc_hd__mux2_1
XFILLER_13_15 VGND VGND VPWR VPWR sky130_fd_sc_hd__decap_12
XFILLER_14_91 VGND VGND VPWR VPWR sky130_fd_sc_hd__fill_1
XFILLER_10_27 VGND VGND VPWR VPWR sky130_fd_sc_hd__decap_4
XFILLER_24_137 VGND VGND VPWR VPWR sky130_fd_sc_hd__decap_12
XFILLER_2_72 VGND VGND VPWR VPWR sky130_fd_sc_hd__fill_2
XPHY_90 VGND VPWR sky130_fd_sc_hd__tapvpwrvgnd_1
XFILLER_21_48 VGND VGND VPWR VPWR sky130_fd_sc_hd__decap_12
XFILLER_21_15 VGND VGND VPWR VPWR sky130_fd_sc_hd__decap_12
XFILLER_15_115 VGND VGND VPWR VPWR sky130_fd_sc_hd__decap_6
XFILLER_7_39 VGND VGND VPWR VPWR sky130_fd_sc_hd__decap_12
Xmux_right_ipin_0.mux_l3_in_0_ mux_right_ipin_0.mux_l2_in_1_/X mux_right_ipin_0.mux_l2_in_0_/X
+ mux_right_ipin_0.mux_l3_in_0_/S mux_right_ipin_0.mux_l3_in_0_/X VGND VGND VPWR VPWR
+ sky130_fd_sc_hd__mux2_1
XFILLER_16_15 VGND VGND VPWR VPWR sky130_fd_sc_hd__decap_12
XFILLER_22_80 VGND VGND VPWR VPWR sky130_fd_sc_hd__decap_12
XFILLER_7_155 VGND VGND VPWR VPWR sky130_fd_sc_hd__fill_2
XFILLER_8_93 VGND VGND VPWR VPWR sky130_fd_sc_hd__decap_12
XFILLER_4_103 VGND VGND VPWR VPWR sky130_fd_sc_hd__decap_12
Xmux_right_ipin_0.mux_l2_in_1_ chany_bottom_in[10] mux_right_ipin_0.mux_l1_in_2_/X
+ mux_right_ipin_0.mux_l2_in_2_/S mux_right_ipin_0.mux_l2_in_1_/X VGND VGND VPWR VPWR
+ sky130_fd_sc_hd__mux2_1
XFILLER_1_106 VGND VGND VPWR VPWR sky130_fd_sc_hd__decap_12
XFILLER_13_27 VGND VGND VPWR VPWR sky130_fd_sc_hd__decap_12
XFILLER_24_15 VGND VGND VPWR VPWR sky130_fd_sc_hd__decap_12
Xmux_right_ipin_0.mux_l1_in_2_ chany_top_in[4] chany_bottom_in[4] mux_right_ipin_0.mux_l1_in_2_/S
+ mux_right_ipin_0.mux_l1_in_2_/X VGND VGND VPWR VPWR sky130_fd_sc_hd__mux2_1
XFILLER_19_59 VGND VGND VPWR VPWR sky130_fd_sc_hd__fill_2
XFILLER_19_15 VGND VGND VPWR VPWR sky130_fd_sc_hd__decap_12
XFILLER_4_3 VGND VGND VPWR VPWR sky130_fd_sc_hd__decap_12
XFILLER_2_84 VGND VGND VPWR VPWR sky130_fd_sc_hd__fill_1
XPHY_80 VGND VPWR sky130_fd_sc_hd__tapvpwrvgnd_1
XPHY_91 VGND VPWR sky130_fd_sc_hd__tapvpwrvgnd_1
XFILLER_24_149 VGND VGND VPWR VPWR sky130_fd_sc_hd__decap_6
XFILLER_21_27 VGND VGND VPWR VPWR sky130_fd_sc_hd__fill_1
XFILLER_20_141 VGND VGND VPWR VPWR sky130_fd_sc_hd__decap_12
XFILLER_16_27 VGND VGND VPWR VPWR sky130_fd_sc_hd__decap_4
XFILLER_7_123 VGND VGND VPWR VPWR sky130_fd_sc_hd__decap_12
XFILLER_8_50 VGND VGND VPWR VPWR sky130_fd_sc_hd__decap_12
XFILLER_4_115 VGND VGND VPWR VPWR sky130_fd_sc_hd__fill_2
Xmux_right_ipin_0.mux_l2_in_0_ mux_right_ipin_0.mux_l1_in_1_/X mux_right_ipin_0.mux_l1_in_0_/X
+ mux_right_ipin_0.mux_l2_in_2_/S mux_right_ipin_0.mux_l2_in_0_/X VGND VGND VPWR VPWR
+ sky130_fd_sc_hd__mux2_1
XFILLER_1_118 VGND VGND VPWR VPWR sky130_fd_sc_hd__decap_4
XFILLER_13_39 VGND VGND VPWR VPWR sky130_fd_sc_hd__decap_12
XFILLER_24_27 VGND VGND VPWR VPWR sky130_fd_sc_hd__decap_4
XFILLER_5_51 VGND VGND VPWR VPWR sky130_fd_sc_hd__decap_8
XFILLER_5_62 VGND VGND VPWR VPWR sky130_fd_sc_hd__decap_12
Xmux_right_ipin_0.mux_l1_in_1_ chany_top_in[2] chany_bottom_in[2] mux_right_ipin_0.mux_l1_in_2_/S
+ mux_right_ipin_0.mux_l1_in_1_/X VGND VGND VPWR VPWR sky130_fd_sc_hd__mux2_1
XFILLER_14_93 VGND VGND VPWR VPWR sky130_fd_sc_hd__fill_2
XFILLER_19_27 VGND VGND VPWR VPWR sky130_fd_sc_hd__decap_12
XPHY_92 VGND VPWR sky130_fd_sc_hd__tapvpwrvgnd_1
XPHY_70 VGND VPWR sky130_fd_sc_hd__tapvpwrvgnd_1
XPHY_81 VGND VPWR sky130_fd_sc_hd__tapvpwrvgnd_1
XFILLER_24_106 VGND VGND VPWR VPWR sky130_fd_sc_hd__decap_12
XFILLER_2_52 VGND VGND VPWR VPWR sky130_fd_sc_hd__decap_4
X_39_ chany_bottom_in[18] chany_top_out[18] VGND VGND VPWR VPWR sky130_fd_sc_hd__buf_2
XFILLER_22_93 VGND VGND VPWR VPWR sky130_fd_sc_hd__decap_12
XFILLER_7_135 VGND VGND VPWR VPWR sky130_fd_sc_hd__decap_12
XFILLER_8_62 VGND VGND VPWR VPWR sky130_fd_sc_hd__decap_12
XFILLER_12_3 VGND VGND VPWR VPWR sky130_fd_sc_hd__decap_12
XFILLER_5_74 VGND VGND VPWR VPWR sky130_fd_sc_hd__decap_12
Xmux_right_ipin_0.mux_l1_in_0_ chany_top_in[0] chany_bottom_in[0] mux_right_ipin_0.mux_l1_in_2_/S
+ mux_right_ipin_0.mux_l1_in_0_/X VGND VGND VPWR VPWR sky130_fd_sc_hd__mux2_1
XFILLER_19_39 VGND VGND VPWR VPWR sky130_fd_sc_hd__decap_12
XPHY_93 VGND VPWR sky130_fd_sc_hd__tapvpwrvgnd_1
XPHY_60 VGND VPWR sky130_fd_sc_hd__tapvpwrvgnd_1
XPHY_71 VGND VPWR sky130_fd_sc_hd__tapvpwrvgnd_1
XPHY_82 VGND VPWR sky130_fd_sc_hd__tapvpwrvgnd_1
XFILLER_24_118 VGND VGND VPWR VPWR sky130_fd_sc_hd__decap_6
XFILLER_11_51 VGND VGND VPWR VPWR sky130_fd_sc_hd__decap_8
XFILLER_11_62 VGND VGND VPWR VPWR sky130_fd_sc_hd__decap_12
XFILLER_20_154 VGND VGND VPWR VPWR sky130_fd_sc_hd__decap_3
X_38_ chany_bottom_in[19] chany_top_out[19] VGND VGND VPWR VPWR sky130_fd_sc_hd__buf_2
XFILLER_7_147 VGND VGND VPWR VPWR sky130_fd_sc_hd__decap_8
XFILLER_8_74 VGND VGND VPWR VPWR sky130_fd_sc_hd__decap_12
XFILLER_5_86 VGND VGND VPWR VPWR sky130_fd_sc_hd__decap_12
XFILLER_14_40 VGND VGND VPWR VPWR sky130_fd_sc_hd__fill_2
XFILLER_18_105 VGND VGND VPWR VPWR sky130_fd_sc_hd__decap_12
XPHY_94 VGND VPWR sky130_fd_sc_hd__tapvpwrvgnd_1
XPHY_50 VGND VPWR sky130_fd_sc_hd__tapvpwrvgnd_1
XPHY_61 VGND VPWR sky130_fd_sc_hd__tapvpwrvgnd_1
XPHY_72 VGND VPWR sky130_fd_sc_hd__tapvpwrvgnd_1
XPHY_83 VGND VPWR sky130_fd_sc_hd__tapvpwrvgnd_1
XFILLER_2_98 VGND VGND VPWR VPWR sky130_fd_sc_hd__decap_4
XFILLER_2_43 VGND VGND VPWR VPWR sky130_fd_sc_hd__decap_4
XFILLER_2_32 VGND VGND VPWR VPWR sky130_fd_sc_hd__decap_6
XFILLER_2_3 VGND VGND VPWR VPWR sky130_fd_sc_hd__decap_12
XFILLER_11_74 VGND VGND VPWR VPWR sky130_fd_sc_hd__decap_4
X_37_ chany_top_in[0] chany_bottom_out[0] VGND VGND VPWR VPWR sky130_fd_sc_hd__buf_2
XFILLER_11_100 VGND VGND VPWR VPWR sky130_fd_sc_hd__fill_1
XFILLER_11_155 VGND VGND VPWR VPWR sky130_fd_sc_hd__fill_2
XFILLER_8_86 VGND VGND VPWR VPWR sky130_fd_sc_hd__decap_6
XFILLER_17_62 VGND VGND VPWR VPWR sky130_fd_sc_hd__decap_12
XFILLER_17_51 VGND VGND VPWR VPWR sky130_fd_sc_hd__decap_8
XFILLER_5_98 VGND VGND VPWR VPWR sky130_fd_sc_hd__decap_12
XFILLER_18_117 VGND VGND VPWR VPWR sky130_fd_sc_hd__decap_12
XPHY_40 VGND VGND VPWR VPWR sky130_fd_sc_hd__decap_3
XPHY_95 VGND VPWR sky130_fd_sc_hd__tapvpwrvgnd_1
XFILLER_2_66 VGND VGND VPWR VPWR sky130_fd_sc_hd__fill_2
XPHY_51 VGND VPWR sky130_fd_sc_hd__tapvpwrvgnd_1
XPHY_62 VGND VPWR sky130_fd_sc_hd__tapvpwrvgnd_1
XPHY_73 VGND VPWR sky130_fd_sc_hd__tapvpwrvgnd_1
XPHY_84 VGND VPWR sky130_fd_sc_hd__tapvpwrvgnd_1
X_36_ chany_top_in[1] chany_bottom_out[1] VGND VGND VPWR VPWR sky130_fd_sc_hd__buf_2
XFILLER_11_123 VGND VGND VPWR VPWR sky130_fd_sc_hd__decap_12
X_19_ chany_top_in[18] chany_bottom_out[18] VGND VGND VPWR VPWR sky130_fd_sc_hd__buf_2
XFILLER_17_74 VGND VGND VPWR VPWR sky130_fd_sc_hd__decap_12
XFILLER_10_3 VGND VGND VPWR VPWR sky130_fd_sc_hd__decap_12
XFILLER_14_53 VGND VGND VPWR VPWR sky130_fd_sc_hd__decap_3
XPHY_41 VGND VGND VPWR VPWR sky130_fd_sc_hd__decap_3
XFILLER_18_129 VGND VGND VPWR VPWR sky130_fd_sc_hd__decap_12
XPHY_96 VGND VPWR sky130_fd_sc_hd__tapvpwrvgnd_1
XFILLER_2_89 VGND VGND VPWR VPWR sky130_fd_sc_hd__decap_3
XFILLER_2_78 VGND VGND VPWR VPWR sky130_fd_sc_hd__decap_6
XPHY_52 VGND VPWR sky130_fd_sc_hd__tapvpwrvgnd_1
XPHY_63 VGND VPWR sky130_fd_sc_hd__tapvpwrvgnd_1
XPHY_74 VGND VPWR sky130_fd_sc_hd__tapvpwrvgnd_1
XPHY_85 VGND VPWR sky130_fd_sc_hd__tapvpwrvgnd_1
XPHY_30 VGND VGND VPWR VPWR sky130_fd_sc_hd__decap_3
XFILLER_23_110 VGND VGND VPWR VPWR sky130_fd_sc_hd__decap_12
XFILLER_14_154 VGND VGND VPWR VPWR sky130_fd_sc_hd__decap_3
X_35_ chany_top_in[2] chany_bottom_out[2] VGND VGND VPWR VPWR sky130_fd_sc_hd__buf_2
XFILLER_11_135 VGND VGND VPWR VPWR sky130_fd_sc_hd__decap_12
X_18_ chany_top_in[19] chany_bottom_out[19] VGND VGND VPWR VPWR sky130_fd_sc_hd__buf_2
XFILLER_17_86 VGND VGND VPWR VPWR sky130_fd_sc_hd__decap_12
XFILLER_0_156 VGND VGND VPWR VPWR sky130_fd_sc_hd__fill_1
XFILLER_14_32 VGND VGND VPWR VPWR sky130_fd_sc_hd__decap_8
XFILLER_14_65 VGND VGND VPWR VPWR sky130_fd_sc_hd__decap_6
XPHY_42 VGND VGND VPWR VPWR sky130_fd_sc_hd__decap_3
XPHY_97 VGND VPWR sky130_fd_sc_hd__tapvpwrvgnd_1
XPHY_53 VGND VPWR sky130_fd_sc_hd__tapvpwrvgnd_1
XPHY_64 VGND VPWR sky130_fd_sc_hd__tapvpwrvgnd_1
XPHY_75 VGND VPWR sky130_fd_sc_hd__tapvpwrvgnd_1
XPHY_20 VGND VGND VPWR VPWR sky130_fd_sc_hd__decap_3
XPHY_86 VGND VPWR sky130_fd_sc_hd__tapvpwrvgnd_1
XPHY_31 VGND VGND VPWR VPWR sky130_fd_sc_hd__decap_3
XFILLER_23_155 VGND VGND VPWR VPWR sky130_fd_sc_hd__fill_2
XFILLER_11_88 VGND VGND VPWR VPWR sky130_fd_sc_hd__decap_12
X_34_ chany_top_in[3] chany_bottom_out[3] VGND VGND VPWR VPWR sky130_fd_sc_hd__buf_2
XFILLER_14_111 VGND VGND VPWR VPWR sky130_fd_sc_hd__decap_12
XFILLER_22_32 VGND VGND VPWR VPWR sky130_fd_sc_hd__decap_12
XFILLER_0_3 VGND VGND VPWR VPWR sky130_fd_sc_hd__decap_12
XFILLER_11_147 VGND VGND VPWR VPWR sky130_fd_sc_hd__decap_8
X_17_ chany_bottom_in[0] chany_top_out[0] VGND VGND VPWR VPWR sky130_fd_sc_hd__buf_2
XFILLER_17_98 VGND VGND VPWR VPWR sky130_fd_sc_hd__decap_12
XFILLER_3_121 VGND VGND VPWR VPWR sky130_fd_sc_hd__fill_1
XPHY_43 VGND VGND VPWR VPWR sky130_fd_sc_hd__decap_3
XPHY_98 VGND VPWR sky130_fd_sc_hd__tapvpwrvgnd_1
XPHY_32 VGND VGND VPWR VPWR sky130_fd_sc_hd__decap_3
XPHY_54 VGND VPWR sky130_fd_sc_hd__tapvpwrvgnd_1
XPHY_10 VGND VGND VPWR VPWR sky130_fd_sc_hd__decap_3
XPHY_65 VGND VPWR sky130_fd_sc_hd__tapvpwrvgnd_1
XPHY_76 VGND VPWR sky130_fd_sc_hd__tapvpwrvgnd_1
XPHY_21 VGND VGND VPWR VPWR sky130_fd_sc_hd__decap_3
XPHY_87 VGND VPWR sky130_fd_sc_hd__tapvpwrvgnd_1
XFILLER_2_47 VGND VGND VPWR VPWR sky130_fd_sc_hd__fill_1
XFILLER_23_123 VGND VGND VPWR VPWR sky130_fd_sc_hd__decap_12
XFILLER_11_78 VGND VGND VPWR VPWR sky130_fd_sc_hd__fill_1
X_33_ chany_top_in[4] chany_bottom_out[4] VGND VGND VPWR VPWR sky130_fd_sc_hd__buf_2
XFILLER_14_123 VGND VGND VPWR VPWR sky130_fd_sc_hd__decap_12
XFILLER_22_44 VGND VGND VPWR VPWR sky130_fd_sc_hd__decap_12
XFILLER_11_104 VGND VGND VPWR VPWR sky130_fd_sc_hd__decap_12
X_16_ chany_bottom_in[1] chany_top_out[1] VGND VGND VPWR VPWR sky130_fd_sc_hd__buf_2
XFILLER_6_141 VGND VGND VPWR VPWR sky130_fd_sc_hd__decap_12
XFILLER_3_133 VGND VGND VPWR VPWR sky130_fd_sc_hd__decap_12
XFILLER_0_125 VGND VGND VPWR VPWR sky130_fd_sc_hd__decap_12
XFILLER_14_45 VGND VGND VPWR VPWR sky130_fd_sc_hd__decap_8
XPHY_44 VGND VGND VPWR VPWR sky130_fd_sc_hd__decap_3
XPHY_99 VGND VPWR sky130_fd_sc_hd__tapvpwrvgnd_1
XPHY_33 VGND VGND VPWR VPWR sky130_fd_sc_hd__decap_3