* NGSPICE file created from cby_0__1_.ext - technology: sky130A

* Black-box entry subcircuit for sky130_fd_sc_hd__decap_12 abstract view
.subckt sky130_fd_sc_hd__decap_12 VGND VNB VPB VPWR
.ends

* Black-box entry subcircuit for sky130_fd_sc_hd__fill_1 abstract view
.subckt sky130_fd_sc_hd__fill_1 VGND VNB VPB VPWR
.ends

* Black-box entry subcircuit for sky130_fd_sc_hd__decap_4 abstract view
.subckt sky130_fd_sc_hd__decap_4 VGND VNB VPB VPWR
.ends

* Black-box entry subcircuit for sky130_fd_sc_hd__decap_6 abstract view
.subckt sky130_fd_sc_hd__decap_6 VGND VNB VPB VPWR
.ends

* Black-box entry subcircuit for sky130_fd_sc_hd__decap_8 abstract view
.subckt sky130_fd_sc_hd__decap_8 VGND VNB VPB VPWR
.ends

* Black-box entry subcircuit for sky130_fd_sc_hd__decap_3 abstract view
.subckt sky130_fd_sc_hd__decap_3 VGND VNB VPB VPWR
.ends

* Black-box entry subcircuit for sky130_fd_sc_hd__diode_2 abstract view
.subckt sky130_fd_sc_hd__diode_2 DIODE VGND VNB VPB VPWR
.ends

* Black-box entry subcircuit for sky130_fd_sc_hd__fill_2 abstract view
.subckt sky130_fd_sc_hd__fill_2 VGND VNB VPB VPWR
.ends

* Black-box entry subcircuit for sky130_fd_sc_hd__buf_8 abstract view
.subckt sky130_fd_sc_hd__buf_8 A VGND VNB VPB VPWR X
.ends

* Black-box entry subcircuit for sky130_fd_sc_hd__buf_2 abstract view
.subckt sky130_fd_sc_hd__buf_2 A VGND VNB VPB VPWR X
.ends

* Black-box entry subcircuit for sky130_fd_sc_hd__tapvpwrvgnd_1 abstract view
.subckt sky130_fd_sc_hd__tapvpwrvgnd_1 VGND VPWR
.ends

* Black-box entry subcircuit for sky130_fd_sc_hd__dfxtp_1 abstract view
.subckt sky130_fd_sc_hd__dfxtp_1 CLK D VGND VNB VPB VPWR Q
.ends

* Black-box entry subcircuit for sky130_fd_sc_hd__inv_1 abstract view
.subckt sky130_fd_sc_hd__inv_1 A VGND VNB VPB VPWR Y
.ends

* Black-box entry subcircuit for sky130_fd_sc_hd__clkbuf_1 abstract view
.subckt sky130_fd_sc_hd__clkbuf_1 A VGND VNB VPB VPWR X
.ends

* Black-box entry subcircuit for sky130_fd_sc_hd__ebufn_4 abstract view
.subckt sky130_fd_sc_hd__ebufn_4 A TE_B VGND VNB VPB VPWR Z
.ends

* Black-box entry subcircuit for sky130_fd_sc_hd__buf_4 abstract view
.subckt sky130_fd_sc_hd__buf_4 A VGND VNB VPB VPWR X
.ends

* Black-box entry subcircuit for sky130_fd_sc_hd__conb_1 abstract view
.subckt sky130_fd_sc_hd__conb_1 VGND VNB VPB VPWR HI LO
.ends

* Black-box entry subcircuit for sky130_fd_sc_hd__mux2_1 abstract view
.subckt sky130_fd_sc_hd__mux2_1 A0 A1 S VGND VNB VPB VPWR X
.ends

* Black-box entry subcircuit for sky130_fd_sc_hd__clkbuf_16 abstract view
.subckt sky130_fd_sc_hd__clkbuf_16 A VGND VNB VPB VPWR X
.ends

* Black-box entry subcircuit for sky130_fd_sc_hd__or2b_4 abstract view
.subckt sky130_fd_sc_hd__or2b_4 A B_N VGND VNB VPB VPWR X
.ends

.subckt cby_0__1_ IO_ISOL_N ccff_head ccff_tail chany_bottom_in[0] chany_bottom_in[10]
+ chany_bottom_in[11] chany_bottom_in[12] chany_bottom_in[13] chany_bottom_in[14]
+ chany_bottom_in[15] chany_bottom_in[16] chany_bottom_in[17] chany_bottom_in[18]
+ chany_bottom_in[19] chany_bottom_in[1] chany_bottom_in[2] chany_bottom_in[3] chany_bottom_in[4]
+ chany_bottom_in[5] chany_bottom_in[6] chany_bottom_in[7] chany_bottom_in[8] chany_bottom_in[9]
+ chany_bottom_out[0] chany_bottom_out[10] chany_bottom_out[11] chany_bottom_out[12]
+ chany_bottom_out[13] chany_bottom_out[14] chany_bottom_out[15] chany_bottom_out[16]
+ chany_bottom_out[17] chany_bottom_out[18] chany_bottom_out[19] chany_bottom_out[1]
+ chany_bottom_out[2] chany_bottom_out[3] chany_bottom_out[4] chany_bottom_out[5]
+ chany_bottom_out[6] chany_bottom_out[7] chany_bottom_out[8] chany_bottom_out[9]
+ chany_top_in[0] chany_top_in[10] chany_top_in[11] chany_top_in[12] chany_top_in[13]
+ chany_top_in[14] chany_top_in[15] chany_top_in[16] chany_top_in[17] chany_top_in[18]
+ chany_top_in[19] chany_top_in[1] chany_top_in[2] chany_top_in[3] chany_top_in[4]
+ chany_top_in[5] chany_top_in[6] chany_top_in[7] chany_top_in[8] chany_top_in[9]
+ chany_top_out[0] chany_top_out[10] chany_top_out[11] chany_top_out[12] chany_top_out[13]
+ chany_top_out[14] chany_top_out[15] chany_top_out[16] chany_top_out[17] chany_top_out[18]
+ chany_top_out[19] chany_top_out[1] chany_top_out[2] chany_top_out[3] chany_top_out[4]
+ chany_top_out[5] chany_top_out[6] chany_top_out[7] chany_top_out[8] chany_top_out[9]
+ gfpga_pad_EMBEDDED_IO_HD_SOC_DIR gfpga_pad_EMBEDDED_IO_HD_SOC_IN gfpga_pad_EMBEDDED_IO_HD_SOC_OUT
+ left_grid_pin_0_ prog_clk_0_E_in right_width_0_height_0__pin_0_ right_width_0_height_0__pin_1_lower
+ right_width_0_height_0__pin_1_upper VPWR VGND
XFILLER_22_111 VGND VGND VPWR VPWR sky130_fd_sc_hd__decap_12
XFILLER_6_118 VGND VGND VPWR VPWR sky130_fd_sc_hd__fill_1
XFILLER_10_158 VGND VGND VPWR VPWR sky130_fd_sc_hd__fill_1
XFILLER_12_32 VGND VGND VPWR VPWR sky130_fd_sc_hd__decap_12
XFILLER_23_86 VGND VGND VPWR VPWR sky130_fd_sc_hd__decap_12
XFILLER_2_154 VGND VGND VPWR VPWR sky130_fd_sc_hd__decap_4
XFILLER_18_86 VGND VGND VPWR VPWR sky130_fd_sc_hd__decap_6
XFILLER_20_32 VGND VGND VPWR VPWR sky130_fd_sc_hd__decap_8
XFILLER_22_123 VGND VGND VPWR VPWR sky130_fd_sc_hd__decap_12
XFILLER_13_123 VGND VGND VPWR VPWR sky130_fd_sc_hd__decap_12
XFILLER_12_44 VGND VGND VPWR VPWR sky130_fd_sc_hd__decap_12
XFILLER_5_141 VGND VGND VPWR VPWR sky130_fd_sc_hd__decap_12
XFILLER_23_43 VGND VGND VPWR VPWR sky130_fd_sc_hd__decap_3
XFILLER_23_98 VGND VGND VPWR VPWR sky130_fd_sc_hd__decap_12
XFILLER_9_23 VGND VGND VPWR VPWR sky130_fd_sc_hd__fill_1
XFILLER_18_32 VGND VGND VPWR VPWR sky130_fd_sc_hd__decap_12
XFILLER_20_44 VGND VGND VPWR VPWR sky130_fd_sc_hd__decap_12
XFILLER_25_110 VGND VGND VPWR VPWR sky130_fd_sc_hd__decap_12
XFILLER_15_22 VGND VGND VPWR VPWR sky130_fd_sc_hd__decap_4
XFILLER_16_154 VGND VGND VPWR VPWR sky130_fd_sc_hd__decap_4
XFILLER_22_135 VGND VGND VPWR VPWR sky130_fd_sc_hd__decap_12
XFILLER_26_32 VGND VGND VPWR VPWR sky130_fd_sc_hd__decap_12
XFILLER_13_135 VGND VGND VPWR VPWR sky130_fd_sc_hd__decap_12
XFILLER_10_105 VGND VGND VPWR VPWR sky130_fd_sc_hd__decap_12
XFILLER_12_56 VGND VGND VPWR VPWR sky130_fd_sc_hd__decap_3
XFILLER_5_153 VGND VGND VPWR VPWR sky130_fd_sc_hd__decap_6
XFILLER_3_3 VGND VGND VPWR VPWR sky130_fd_sc_hd__decap_12
XFILLER_0_15 VGND VGND VPWR VPWR sky130_fd_sc_hd__decap_12
XFILLER_18_44 VGND VGND VPWR VPWR sky130_fd_sc_hd__decap_8
XFILLER_20_56 VGND VGND VPWR VPWR sky130_fd_sc_hd__decap_12
XANTENNA_mux_right_ipin_0.mux_l1_in_1__A0 chany_top_in[2] VGND VGND VPWR VPWR sky130_fd_sc_hd__diode_2
XFILLER_6_58 VGND VGND VPWR VPWR sky130_fd_sc_hd__fill_1
XFILLER_13_5 VGND VGND VPWR VPWR sky130_fd_sc_hd__decap_12
XFILLER_16_100 VGND VGND VPWR VPWR sky130_fd_sc_hd__decap_12
XANTENNA__04__A chany_bottom_in[5] VGND VGND VPWR VPWR sky130_fd_sc_hd__diode_2
XFILLER_22_158 VGND VGND VPWR VPWR sky130_fd_sc_hd__fill_1
XFILLER_22_147 VGND VGND VPWR VPWR sky130_fd_sc_hd__decap_6
XFILLER_26_44 VGND VGND VPWR VPWR sky130_fd_sc_hd__decap_12
XANTENNA_mem_right_ipin_0.sky130_fd_sc_hd__dfxtp_1_0__D ccff_head VGND VGND VPWR VPWR
+ sky130_fd_sc_hd__diode_2
XFILLER_13_147 VGND VGND VPWR VPWR sky130_fd_sc_hd__decap_12
XFILLER_3_59 VGND VGND VPWR VPWR sky130_fd_sc_hd__fill_2
XFILLER_3_15 VGND VGND VPWR VPWR sky130_fd_sc_hd__decap_12
XFILLER_10_117 VGND VGND VPWR VPWR sky130_fd_sc_hd__decap_12
XFILLER_12_68 VGND VGND VPWR VPWR sky130_fd_sc_hd__decap_12
XFILLER_5_121 VGND VGND VPWR VPWR sky130_fd_sc_hd__fill_1
XFILLER_4_80 VGND VGND VPWR VPWR sky130_fd_sc_hd__fill_2
XFILLER_0_27 VGND VGND VPWR VPWR sky130_fd_sc_hd__decap_4
XANTENNA__12__A chany_bottom_in[13] VGND VGND VPWR VPWR sky130_fd_sc_hd__diode_2
Xprog_clk_0_FTB00 prog_clk_0_E_in VGND VGND VPWR VPWR prog_clk_0_FTB00/X sky130_fd_sc_hd__buf_8
XANTENNA__07__A chany_bottom_in[8] VGND VGND VPWR VPWR sky130_fd_sc_hd__diode_2
XANTENNA_mux_right_ipin_0.mux_l1_in_1__A1 chany_bottom_in[2] VGND VGND VPWR VPWR sky130_fd_sc_hd__diode_2
X_29_ chany_top_in[9] VGND VGND VPWR VPWR chany_bottom_out[9] sky130_fd_sc_hd__buf_2
XFILLER_20_68 VGND VGND VPWR VPWR sky130_fd_sc_hd__decap_12
XFILLER_6_15 VGND VGND VPWR VPWR sky130_fd_sc_hd__decap_12
XFILLER_25_123 VGND VGND VPWR VPWR sky130_fd_sc_hd__decap_12
XANTENNA__20__A chany_top_in[0] VGND VGND VPWR VPWR sky130_fd_sc_hd__diode_2
XFILLER_16_112 VGND VGND VPWR VPWR sky130_fd_sc_hd__decap_12
XFILLER_11_3 VGND VGND VPWR VPWR sky130_fd_sc_hd__decap_12
XFILLER_26_56 VGND VGND VPWR VPWR sky130_fd_sc_hd__decap_12
XANTENNA__15__A chany_bottom_in[16] VGND VGND VPWR VPWR sky130_fd_sc_hd__diode_2
XFILLER_3_27 VGND VGND VPWR VPWR sky130_fd_sc_hd__decap_12
XFILLER_8_141 VGND VGND VPWR VPWR sky130_fd_sc_hd__decap_12
XFILLER_10_129 VGND VGND VPWR VPWR sky130_fd_sc_hd__decap_12
XFILLER_2_158 VGND VGND VPWR VPWR sky130_fd_sc_hd__fill_1
XFILLER_9_15 VGND VGND VPWR VPWR sky130_fd_sc_hd__decap_8
XANTENNA_logical_tile_io_mode_io__0.ltile_phy_iopad_0.EMBEDDED_IO_HD_0_.IN_PROTECT_GATE_A
+ gfpga_pad_EMBEDDED_IO_HD_SOC_IN VGND VGND VPWR VPWR sky130_fd_sc_hd__diode_2
XANTENNA__23__A chany_top_in[3] VGND VGND VPWR VPWR sky130_fd_sc_hd__diode_2
X_28_ chany_top_in[8] VGND VGND VPWR VPWR chany_bottom_out[8] sky130_fd_sc_hd__buf_2
XANTENNA__18__A chany_bottom_in[19] VGND VGND VPWR VPWR sky130_fd_sc_hd__diode_2
XFILLER_19_110 VGND VGND VPWR VPWR sky130_fd_sc_hd__decap_12
XFILLER_6_27 VGND VGND VPWR VPWR sky130_fd_sc_hd__decap_4
XFILLER_10_80 VGND VGND VPWR VPWR sky130_fd_sc_hd__decap_12
XFILLER_25_135 VGND VGND VPWR VPWR sky130_fd_sc_hd__decap_12
XPHY_130 VGND VPWR sky130_fd_sc_hd__tapvpwrvgnd_1
XFILLER_16_124 VGND VGND VPWR VPWR sky130_fd_sc_hd__decap_12
XFILLER_7_70 VGND VGND VPWR VPWR sky130_fd_sc_hd__fill_2
XFILLER_26_68 VGND VGND VPWR VPWR sky130_fd_sc_hd__decap_12
XFILLER_3_39 VGND VGND VPWR VPWR sky130_fd_sc_hd__decap_12
XANTENNA__31__A chany_top_in[11] VGND VGND VPWR VPWR sky130_fd_sc_hd__diode_2
XANTENNA__26__A chany_top_in[6] VGND VGND VPWR VPWR sky130_fd_sc_hd__diode_2
XFILLER_12_15 VGND VGND VPWR VPWR sky130_fd_sc_hd__decap_12
XFILLER_23_36 VGND VGND VPWR VPWR sky130_fd_sc_hd__fill_1
XFILLER_1_3 VGND VGND VPWR VPWR sky130_fd_sc_hd__decap_12
X_27_ chany_top_in[7] VGND VGND VPWR VPWR chany_bottom_out[7] sky130_fd_sc_hd__buf_2
XFILLER_20_15 VGND VGND VPWR VPWR sky130_fd_sc_hd__fill_2
XANTENNA__34__A chany_top_in[14] VGND VGND VPWR VPWR sky130_fd_sc_hd__diode_2
XFILLER_25_147 VGND VGND VPWR VPWR sky130_fd_sc_hd__decap_12
XFILLER_15_15 VGND VGND VPWR VPWR sky130_fd_sc_hd__decap_4
XPHY_120 VGND VPWR sky130_fd_sc_hd__tapvpwrvgnd_1
XFILLER_16_158 VGND VGND VPWR VPWR sky130_fd_sc_hd__fill_1
XFILLER_16_136 VGND VGND VPWR VPWR sky130_fd_sc_hd__decap_12
XANTENNA__29__A chany_top_in[9] VGND VGND VPWR VPWR sky130_fd_sc_hd__diode_2
XPHY_0 VGND VGND VPWR VPWR sky130_fd_sc_hd__decap_3
XFILLER_16_91 VGND VGND VPWR VPWR sky130_fd_sc_hd__fill_1
XFILLER_8_154 VGND VGND VPWR VPWR sky130_fd_sc_hd__decap_4
XFILLER_12_27 VGND VGND VPWR VPWR sky130_fd_sc_hd__decap_4
XANTENNA__42__A chany_bottom_in[2] VGND VGND VPWR VPWR sky130_fd_sc_hd__diode_2
XFILLER_23_15 VGND VGND VPWR VPWR sky130_fd_sc_hd__decap_12
XFILLER_4_72 VGND VGND VPWR VPWR sky130_fd_sc_hd__fill_2
XFILLER_4_61 VGND VGND VPWR VPWR sky130_fd_sc_hd__decap_4
XFILLER_2_105 VGND VGND VPWR VPWR sky130_fd_sc_hd__decap_12
XANTENNA__37__A chany_top_in[17] VGND VGND VPWR VPWR sky130_fd_sc_hd__diode_2
XFILLER_18_15 VGND VGND VPWR VPWR sky130_fd_sc_hd__decap_12
XFILLER_27_3 VGND VGND VPWR VPWR sky130_fd_sc_hd__decap_12
XFILLER_24_80 VGND VGND VPWR VPWR sky130_fd_sc_hd__decap_12
XFILLER_1_62 VGND VGND VPWR VPWR sky130_fd_sc_hd__decap_12
XFILLER_1_51 VGND VGND VPWR VPWR sky130_fd_sc_hd__decap_8
X_26_ chany_top_in[6] VGND VGND VPWR VPWR chany_bottom_out[6] sky130_fd_sc_hd__buf_2
XFILLER_19_123 VGND VGND VPWR VPWR sky130_fd_sc_hd__decap_12
XANTENNA_mux_right_ipin_0.mux_l2_in_3__A1 chany_top_in[16] VGND VGND VPWR VPWR sky130_fd_sc_hd__diode_2
XFILLER_10_93 VGND VGND VPWR VPWR sky130_fd_sc_hd__decap_12
X_09_ chany_bottom_in[10] VGND VGND VPWR VPWR chany_top_out[10] sky130_fd_sc_hd__buf_2
XPHY_121 VGND VPWR sky130_fd_sc_hd__tapvpwrvgnd_1
XPHY_110 VGND VPWR sky130_fd_sc_hd__tapvpwrvgnd_1
XFILLER_16_148 VGND VGND VPWR VPWR sky130_fd_sc_hd__decap_4
XPHY_1 VGND VGND VPWR VPWR sky130_fd_sc_hd__decap_3
XFILLER_26_15 VGND VGND VPWR VPWR sky130_fd_sc_hd__decap_12
Xmem_right_ipin_0.sky130_fd_sc_hd__dfxtp_1_3_ mem_right_ipin_0.sky130_fd_sc_hd__dfxtp_1_1_/CLK
+ mux_right_ipin_0.mux_l3_in_1_/S VGND VGND VPWR VPWR mux_right_ipin_0.mux_l4_in_0_/S
+ sky130_fd_sc_hd__dfxtp_1
XFILLER_5_114 VGND VGND VPWR VPWR sky130_fd_sc_hd__fill_1
Xlogical_tile_io_mode_io__0.ltile_phy_iopad_0.EMBEDDED_IO_HD_0_.INV_SOC_DIR gfpga_pad_EMBEDDED_IO_HD_SOC_DIR
+ VGND VGND VPWR VPWR logical_tile_io_mode_io__0.ltile_phy_iopad_0.EMBEDDED_IO_HD_0_.INV_SOC_DIR/Y
+ sky130_fd_sc_hd__inv_1
XFILLER_4_84 VGND VGND VPWR VPWR sky130_fd_sc_hd__fill_2
XFILLER_4_95 VGND VGND VPWR VPWR sky130_fd_sc_hd__fill_1
XFILLER_23_27 VGND VGND VPWR VPWR sky130_fd_sc_hd__decap_3
XFILLER_2_117 VGND VGND VPWR VPWR sky130_fd_sc_hd__decap_12
X_42_ chany_bottom_in[2] VGND VGND VPWR VPWR chany_top_out[2] sky130_fd_sc_hd__buf_2
XFILLER_18_27 VGND VGND VPWR VPWR sky130_fd_sc_hd__decap_4
XFILLER_20_28 VGND VGND VPWR VPWR sky130_fd_sc_hd__decap_3
XFILLER_1_74 VGND VGND VPWR VPWR sky130_fd_sc_hd__decap_12
X_25_ chany_top_in[5] VGND VGND VPWR VPWR chany_bottom_out[5] sky130_fd_sc_hd__buf_2
XFILLER_19_135 VGND VGND VPWR VPWR sky130_fd_sc_hd__decap_12
X_08_ chany_bottom_in[9] VGND VGND VPWR VPWR chany_top_out[9] sky130_fd_sc_hd__buf_2
XPHY_100 VGND VPWR sky130_fd_sc_hd__tapvpwrvgnd_1
XPHY_122 VGND VPWR sky130_fd_sc_hd__tapvpwrvgnd_1
XPHY_111 VGND VPWR sky130_fd_sc_hd__tapvpwrvgnd_1
XPHY_2 VGND VGND VPWR VPWR sky130_fd_sc_hd__decap_3
XFILLER_26_27 VGND VGND VPWR VPWR sky130_fd_sc_hd__decap_4
XFILLER_7_51 VGND VGND VPWR VPWR sky130_fd_sc_hd__decap_8
XFILLER_7_62 VGND VGND VPWR VPWR sky130_fd_sc_hd__fill_1
XFILLER_13_108 VGND VGND VPWR VPWR sky130_fd_sc_hd__decap_12
XFILLER_16_93 VGND VGND VPWR VPWR sky130_fd_sc_hd__decap_3
Xmem_right_ipin_0.sky130_fd_sc_hd__dfxtp_1_2_ mem_right_ipin_0.sky130_fd_sc_hd__dfxtp_1_1_/CLK
+ mux_right_ipin_0.mux_l2_in_3_/S VGND VGND VPWR VPWR mux_right_ipin_0.mux_l3_in_1_/S
+ sky130_fd_sc_hd__dfxtp_1
Xclkbuf_1_0_0_logical_tile_io_mode_io__0.ltile_phy_iopad_0.EMBEDDED_IO_HD_sky130_fd_sc_hd__dfxtp_1_mem.prog_clk
+ clkbuf_0_logical_tile_io_mode_io__0.ltile_phy_iopad_0.EMBEDDED_IO_HD_sky130_fd_sc_hd__dfxtp_1_mem.prog_clk/X
+ VGND VGND VPWR VPWR mem_right_ipin_0.sky130_fd_sc_hd__dfxtp_1_1_/CLK sky130_fd_sc_hd__clkbuf_1
XFILLER_2_129 VGND VGND VPWR VPWR sky130_fd_sc_hd__decap_12
X_41_ chany_bottom_in[1] VGND VGND VPWR VPWR chany_top_out[1] sky130_fd_sc_hd__buf_2
XFILLER_24_93 VGND VGND VPWR VPWR sky130_fd_sc_hd__decap_12
XFILLER_1_86 VGND VGND VPWR VPWR sky130_fd_sc_hd__decap_12
X_24_ chany_top_in[4] VGND VGND VPWR VPWR chany_bottom_out[4] sky130_fd_sc_hd__buf_2
XFILLER_19_147 VGND VGND VPWR VPWR sky130_fd_sc_hd__decap_12
X_07_ chany_bottom_in[8] VGND VGND VPWR VPWR chany_top_out[8] sky130_fd_sc_hd__buf_2
XPHY_123 VGND VPWR sky130_fd_sc_hd__tapvpwrvgnd_1
XPHY_112 VGND VPWR sky130_fd_sc_hd__tapvpwrvgnd_1
XPHY_101 VGND VPWR sky130_fd_sc_hd__tapvpwrvgnd_1
XPHY_3 VGND VGND VPWR VPWR sky130_fd_sc_hd__decap_3
XFILLER_7_74 VGND VGND VPWR VPWR sky130_fd_sc_hd__decap_12
Xmem_right_ipin_0.sky130_fd_sc_hd__dfxtp_1_1_ mem_right_ipin_0.sky130_fd_sc_hd__dfxtp_1_1_/CLK
+ mux_right_ipin_0.mux_l1_in_2_/S VGND VGND VPWR VPWR mux_right_ipin_0.mux_l2_in_3_/S
+ sky130_fd_sc_hd__dfxtp_1
XFILLER_5_105 VGND VGND VPWR VPWR sky130_fd_sc_hd__fill_1
X_40_ chany_bottom_in[0] VGND VGND VPWR VPWR chany_top_out[0] sky130_fd_sc_hd__buf_2
XFILLER_13_62 VGND VGND VPWR VPWR sky130_fd_sc_hd__decap_3
XFILLER_1_98 VGND VGND VPWR VPWR sky130_fd_sc_hd__decap_12
X_23_ chany_top_in[3] VGND VGND VPWR VPWR chany_bottom_out[3] sky130_fd_sc_hd__buf_2
XFILLER_25_3 VGND VGND VPWR VPWR sky130_fd_sc_hd__decap_12
X_06_ chany_bottom_in[7] VGND VGND VPWR VPWR chany_top_out[7] sky130_fd_sc_hd__buf_2
XPHY_124 VGND VPWR sky130_fd_sc_hd__tapvpwrvgnd_1
XPHY_113 VGND VPWR sky130_fd_sc_hd__tapvpwrvgnd_1
XFILLER_21_62 VGND VGND VPWR VPWR sky130_fd_sc_hd__decap_12
XFILLER_21_51 VGND VGND VPWR VPWR sky130_fd_sc_hd__decap_8
XPHY_102 VGND VPWR sky130_fd_sc_hd__tapvpwrvgnd_1
XPHY_4 VGND VGND VPWR VPWR sky130_fd_sc_hd__decap_3
XFILLER_7_86 VGND VGND VPWR VPWR sky130_fd_sc_hd__decap_12
XFILLER_21_110 VGND VGND VPWR VPWR sky130_fd_sc_hd__decap_12
Xmem_right_ipin_0.sky130_fd_sc_hd__dfxtp_1_0_ mem_right_ipin_0.sky130_fd_sc_hd__dfxtp_1_0_/CLK
+ ccff_head VGND VGND VPWR VPWR mux_right_ipin_0.mux_l1_in_2_/S sky130_fd_sc_hd__dfxtp_1
XFILLER_8_158 VGND VGND VPWR VPWR sky130_fd_sc_hd__fill_1
XFILLER_12_154 VGND VGND VPWR VPWR sky130_fd_sc_hd__decap_4
XFILLER_27_94 VGND VGND VPWR VPWR sky130_fd_sc_hd__decap_12
XFILLER_4_76 VGND VGND VPWR VPWR sky130_fd_sc_hd__fill_2
XFILLER_4_65 VGND VGND VPWR VPWR sky130_fd_sc_hd__fill_1
XFILLER_4_32 VGND VGND VPWR VPWR sky130_fd_sc_hd__decap_12
XFILLER_13_41 VGND VGND VPWR VPWR sky130_fd_sc_hd__decap_12
XFILLER_13_96 VGND VGND VPWR VPWR sky130_fd_sc_hd__decap_12
X_22_ chany_top_in[2] VGND VGND VPWR VPWR chany_bottom_out[2] sky130_fd_sc_hd__buf_2
XFILLER_19_62 VGND VGND VPWR VPWR sky130_fd_sc_hd__decap_12
XFILLER_19_51 VGND VGND VPWR VPWR sky130_fd_sc_hd__decap_8
XFILLER_18_3 VGND VGND VPWR VPWR sky130_fd_sc_hd__decap_12
X_05_ chany_bottom_in[6] VGND VGND VPWR VPWR chany_top_out[6] sky130_fd_sc_hd__buf_2
XPHY_125 VGND VPWR sky130_fd_sc_hd__tapvpwrvgnd_1
XFILLER_24_141 VGND VGND VPWR VPWR sky130_fd_sc_hd__decap_12
XPHY_114 VGND VPWR sky130_fd_sc_hd__tapvpwrvgnd_1
XFILLER_21_74 VGND VGND VPWR VPWR sky130_fd_sc_hd__decap_12
XPHY_103 VGND VPWR sky130_fd_sc_hd__tapvpwrvgnd_1
Xlogical_tile_io_mode_io__0.ltile_phy_iopad_0.EMBEDDED_IO_HD_0_.IN_PROTECT_GATE gfpga_pad_EMBEDDED_IO_HD_SOC_IN
+ logical_tile_io_mode_io__0.ltile_phy_iopad_0.EMBEDDED_IO_HD_0_.INV_SOC_DIR/Y VGND
+ VGND VPWR VPWR right_width_0_height_0__pin_1_lower sky130_fd_sc_hd__ebufn_4
XPHY_5 VGND VGND VPWR VPWR sky130_fd_sc_hd__decap_3
XFILLER_7_65 VGND VGND VPWR VPWR sky130_fd_sc_hd__decap_3
XFILLER_7_98 VGND VGND VPWR VPWR sky130_fd_sc_hd__decap_12
XFILLER_13_53 VGND VGND VPWR VPWR sky130_fd_sc_hd__decap_8
XFILLER_1_110 VGND VGND VPWR VPWR sky130_fd_sc_hd__decap_12
X_21_ chany_top_in[1] VGND VGND VPWR VPWR chany_bottom_out[1] sky130_fd_sc_hd__buf_2
XFILLER_19_74 VGND VGND VPWR VPWR sky130_fd_sc_hd__decap_12
XFILLER_10_32 VGND VGND VPWR VPWR sky130_fd_sc_hd__decap_12
X_04_ chany_bottom_in[5] VGND VGND VPWR VPWR chany_top_out[5] sky130_fd_sc_hd__buf_2
XPHY_126 VGND VPWR sky130_fd_sc_hd__tapvpwrvgnd_1
XPHY_115 VGND VPWR sky130_fd_sc_hd__tapvpwrvgnd_1
XPHY_104 VGND VPWR sky130_fd_sc_hd__tapvpwrvgnd_1
XFILLER_21_86 VGND VGND VPWR VPWR sky130_fd_sc_hd__decap_12
XPHY_6 VGND VGND VPWR VPWR sky130_fd_sc_hd__decap_3
XFILLER_21_123 VGND VGND VPWR VPWR sky130_fd_sc_hd__decap_12
XFILLER_8_105 VGND VGND VPWR VPWR sky130_fd_sc_hd__decap_12
XFILLER_27_63 VGND VGND VPWR VPWR sky130_fd_sc_hd__decap_12
XFILLER_8_3 VGND VGND VPWR VPWR sky130_fd_sc_hd__decap_12
X_20_ chany_top_in[0] VGND VGND VPWR VPWR chany_bottom_out[0] sky130_fd_sc_hd__buf_2
XFILLER_10_44 VGND VGND VPWR VPWR sky130_fd_sc_hd__decap_12
X_03_ chany_bottom_in[4] VGND VGND VPWR VPWR chany_top_out[4] sky130_fd_sc_hd__buf_2
XFILLER_19_86 VGND VGND VPWR VPWR sky130_fd_sc_hd__decap_12
XPHY_116 VGND VPWR sky130_fd_sc_hd__tapvpwrvgnd_1
XPHY_105 VGND VPWR sky130_fd_sc_hd__tapvpwrvgnd_1
XPHY_127 VGND VPWR sky130_fd_sc_hd__tapvpwrvgnd_1
XFILLER_24_154 VGND VGND VPWR VPWR sky130_fd_sc_hd__decap_4
XFILLER_21_98 VGND VGND VPWR VPWR sky130_fd_sc_hd__decap_12
XFILLER_15_110 VGND VGND VPWR VPWR sky130_fd_sc_hd__decap_12
XPHY_7 VGND VGND VPWR VPWR sky130_fd_sc_hd__decap_3
XFILLER_23_3 VGND VGND VPWR VPWR sky130_fd_sc_hd__decap_12
XFILLER_21_135 VGND VGND VPWR VPWR sky130_fd_sc_hd__decap_12
XFILLER_16_32 VGND VGND VPWR VPWR sky130_fd_sc_hd__decap_12
XFILLER_8_117 VGND VGND VPWR VPWR sky130_fd_sc_hd__decap_12
XFILLER_27_75 VGND VGND VPWR VPWR sky130_fd_sc_hd__decap_12
Xclkbuf_1_1_0_logical_tile_io_mode_io__0.ltile_phy_iopad_0.EMBEDDED_IO_HD_sky130_fd_sc_hd__dfxtp_1_mem.prog_clk
+ clkbuf_0_logical_tile_io_mode_io__0.ltile_phy_iopad_0.EMBEDDED_IO_HD_sky130_fd_sc_hd__dfxtp_1_mem.prog_clk/X
+ VGND VGND VPWR VPWR mem_right_ipin_0.sky130_fd_sc_hd__dfxtp_1_0_/CLK sky130_fd_sc_hd__clkbuf_1
XFILLER_4_68 VGND VGND VPWR VPWR sky130_fd_sc_hd__fill_2
XFILLER_4_46 VGND VGND VPWR VPWR sky130_fd_sc_hd__decap_12
XFILLER_1_123 VGND VGND VPWR VPWR sky130_fd_sc_hd__decap_12
XFILLER_24_32 VGND VGND VPWR VPWR sky130_fd_sc_hd__decap_12
XANTENNA_mux_right_ipin_0.mux_l1_in_0__A0 chany_top_in[0] VGND VGND VPWR VPWR sky130_fd_sc_hd__diode_2
XFILLER_10_56 VGND VGND VPWR VPWR sky130_fd_sc_hd__decap_12
XFILLER_19_98 VGND VGND VPWR VPWR sky130_fd_sc_hd__decap_12
XFILLER_18_141 VGND VGND VPWR VPWR sky130_fd_sc_hd__decap_12
X_02_ chany_bottom_in[3] VGND VGND VPWR VPWR chany_top_out[3] sky130_fd_sc_hd__buf_2
XPHY_128 VGND VPWR sky130_fd_sc_hd__tapvpwrvgnd_1
XPHY_117 VGND VPWR sky130_fd_sc_hd__tapvpwrvgnd_1
XPHY_106 VGND VPWR sky130_fd_sc_hd__tapvpwrvgnd_1
XFILLER_16_3 VGND VGND VPWR VPWR sky130_fd_sc_hd__decap_12
XPHY_8 VGND VGND VPWR VPWR sky130_fd_sc_hd__decap_3
XFILLER_21_147 VGND VGND VPWR VPWR sky130_fd_sc_hd__decap_12
XFILLER_16_44 VGND VGND VPWR VPWR sky130_fd_sc_hd__decap_12
XFILLER_12_158 VGND VGND VPWR VPWR sky130_fd_sc_hd__fill_1
XFILLER_8_129 VGND VGND VPWR VPWR sky130_fd_sc_hd__decap_12
XFILLER_27_87 VGND VGND VPWR VPWR sky130_fd_sc_hd__decap_6
XFILLER_27_32 VGND VGND VPWR VPWR sky130_fd_sc_hd__decap_12
XFILLER_4_58 VGND VGND VPWR VPWR sky130_fd_sc_hd__fill_1
XFILLER_4_121 VGND VGND VPWR VPWR sky130_fd_sc_hd__decap_12
XFILLER_4_154 VGND VGND VPWR VPWR sky130_fd_sc_hd__decap_4
Xmux_right_ipin_0.sky130_fd_sc_hd__buf_4_0_ mux_right_ipin_0.mux_l4_in_0_/X VGND VGND
+ VPWR VPWR left_grid_pin_0_ sky130_fd_sc_hd__buf_4
XFILLER_1_135 VGND VGND VPWR VPWR sky130_fd_sc_hd__decap_12
XANTENNA__02__A chany_bottom_in[3] VGND VGND VPWR VPWR sky130_fd_sc_hd__diode_2
XFILLER_24_44 VGND VGND VPWR VPWR sky130_fd_sc_hd__decap_12
XFILLER_1_59 VGND VGND VPWR VPWR sky130_fd_sc_hd__fill_2
XFILLER_1_15 VGND VGND VPWR VPWR sky130_fd_sc_hd__decap_12
XANTENNA_mux_right_ipin_0.mux_l1_in_0__A1 chany_bottom_in[0] VGND VGND VPWR VPWR sky130_fd_sc_hd__diode_2
XFILLER_10_68 VGND VGND VPWR VPWR sky130_fd_sc_hd__decap_12
X_01_ VGND VGND VPWR VPWR _01_/HI _01_/LO sky130_fd_sc_hd__conb_1
XPHY_129 VGND VPWR sky130_fd_sc_hd__tapvpwrvgnd_1
XPHY_118 VGND VPWR sky130_fd_sc_hd__tapvpwrvgnd_1
XPHY_107 VGND VPWR sky130_fd_sc_hd__tapvpwrvgnd_1
XFILLER_2_80 VGND VGND VPWR VPWR sky130_fd_sc_hd__decap_12
XANTENNA__10__A chany_bottom_in[11] VGND VGND VPWR VPWR sky130_fd_sc_hd__diode_2
XFILLER_15_123 VGND VGND VPWR VPWR sky130_fd_sc_hd__decap_12
XPHY_9 VGND VGND VPWR VPWR sky130_fd_sc_hd__decap_3
XANTENNA_prog_clk_0_FTB00_A prog_clk_0_E_in VGND VGND VPWR VPWR sky130_fd_sc_hd__diode_2
XFILLER_16_56 VGND VGND VPWR VPWR sky130_fd_sc_hd__decap_4
XANTENNA__05__A chany_bottom_in[6] VGND VGND VPWR VPWR sky130_fd_sc_hd__diode_2
XFILLER_12_137 VGND VGND VPWR VPWR sky130_fd_sc_hd__decap_12
XFILLER_27_44 VGND VGND VPWR VPWR sky130_fd_sc_hd__decap_12
XFILLER_4_15 VGND VGND VPWR VPWR sky130_fd_sc_hd__decap_12
XFILLER_4_100 VGND VGND VPWR VPWR sky130_fd_sc_hd__fill_1
XFILLER_4_133 VGND VGND VPWR VPWR sky130_fd_sc_hd__decap_12
XFILLER_1_147 VGND VGND VPWR VPWR sky130_fd_sc_hd__decap_12
XFILLER_5_91 VGND VGND VPWR VPWR sky130_fd_sc_hd__fill_1
XFILLER_24_56 VGND VGND VPWR VPWR sky130_fd_sc_hd__decap_12
XFILLER_1_27 VGND VGND VPWR VPWR sky130_fd_sc_hd__decap_12
XANTENNA__13__A chany_bottom_in[14] VGND VGND VPWR VPWR sky130_fd_sc_hd__diode_2
XFILLER_6_3 VGND VGND VPWR VPWR sky130_fd_sc_hd__decap_12
XANTENNA__08__A chany_bottom_in[9] VGND VGND VPWR VPWR sky130_fd_sc_hd__diode_2
XFILLER_18_154 VGND VGND VPWR VPWR sky130_fd_sc_hd__decap_4
XPHY_119 VGND VPWR sky130_fd_sc_hd__tapvpwrvgnd_1
XPHY_108 VGND VPWR sky130_fd_sc_hd__tapvpwrvgnd_1
XFILLER_15_135 VGND VGND VPWR VPWR sky130_fd_sc_hd__decap_12
XFILLER_7_15 VGND VGND VPWR VPWR sky130_fd_sc_hd__decap_12
XFILLER_7_59 VGND VGND VPWR VPWR sky130_fd_sc_hd__fill_2
XANTENNA__21__A chany_top_in[1] VGND VGND VPWR VPWR sky130_fd_sc_hd__diode_2
XFILLER_12_105 VGND VGND VPWR VPWR sky130_fd_sc_hd__decap_12
XFILLER_12_149 VGND VGND VPWR VPWR sky130_fd_sc_hd__decap_4
XFILLER_21_3 VGND VGND VPWR VPWR sky130_fd_sc_hd__decap_12
XFILLER_27_56 VGND VGND VPWR VPWR sky130_fd_sc_hd__decap_6
XANTENNA__16__A chany_bottom_in[17] VGND VGND VPWR VPWR sky130_fd_sc_hd__diode_2
XFILLER_8_80 VGND VGND VPWR VPWR sky130_fd_sc_hd__decap_12
Xmux_right_ipin_0.mux_l2_in_3_ _01_/HI chany_top_in[16] mux_right_ipin_0.mux_l2_in_3_/S
+ VGND VGND VPWR VPWR mux_right_ipin_0.mux_l2_in_3_/X sky130_fd_sc_hd__mux2_1
XFILLER_4_27 VGND VGND VPWR VPWR sky130_fd_sc_hd__decap_4
XFILLER_4_145 VGND VGND VPWR VPWR sky130_fd_sc_hd__decap_8
XFILLER_24_68 VGND VGND VPWR VPWR sky130_fd_sc_hd__decap_12
XFILLER_1_39 VGND VGND VPWR VPWR sky130_fd_sc_hd__decap_12
XFILLER_10_15 VGND VGND VPWR VPWR sky130_fd_sc_hd__decap_12
Xmux_right_ipin_0.mux_l4_in_0_ mux_right_ipin_0.mux_l3_in_1_/X mux_right_ipin_0.mux_l3_in_0_/X
+ mux_right_ipin_0.mux_l4_in_0_/S VGND VGND VPWR VPWR mux_right_ipin_0.mux_l4_in_0_/X
+ sky130_fd_sc_hd__mux2_1
XANTENNA__24__A chany_top_in[4] VGND VGND VPWR VPWR sky130_fd_sc_hd__diode_2
XANTENNA_mux_right_ipin_0.mux_l2_in_2__A0 chany_bottom_in[16] VGND VGND VPWR VPWR
+ sky130_fd_sc_hd__diode_2
XFILLER_24_158 VGND VGND VPWR VPWR sky130_fd_sc_hd__fill_1
XPHY_109 VGND VPWR sky130_fd_sc_hd__tapvpwrvgnd_1
XFILLER_2_93 VGND VGND VPWR VPWR sky130_fd_sc_hd__decap_12
XANTENNA__19__A right_width_0_height_0__pin_1_lower VGND VGND VPWR VPWR sky130_fd_sc_hd__diode_2
XFILLER_15_147 VGND VGND VPWR VPWR sky130_fd_sc_hd__decap_12
XFILLER_7_27 VGND VGND VPWR VPWR sky130_fd_sc_hd__decap_12
Xmux_right_ipin_0.mux_l3_in_1_ mux_right_ipin_0.mux_l2_in_3_/X mux_right_ipin_0.mux_l2_in_2_/X
+ mux_right_ipin_0.mux_l3_in_1_/S VGND VGND VPWR VPWR mux_right_ipin_0.mux_l3_in_1_/X
+ sky130_fd_sc_hd__mux2_1
XFILLER_16_69 VGND VGND VPWR VPWR sky130_fd_sc_hd__fill_1
XFILLER_12_117 VGND VGND VPWR VPWR sky130_fd_sc_hd__decap_6
XFILLER_7_110 VGND VGND VPWR VPWR sky130_fd_sc_hd__decap_12
XFILLER_4_113 VGND VGND VPWR VPWR sky130_fd_sc_hd__fill_1
XANTENNA__32__A chany_top_in[12] VGND VGND VPWR VPWR sky130_fd_sc_hd__diode_2
Xmux_right_ipin_0.mux_l2_in_2_ chany_bottom_in[16] chany_top_in[10] mux_right_ipin_0.mux_l2_in_3_/S
+ VGND VGND VPWR VPWR mux_right_ipin_0.mux_l2_in_2_/X sky130_fd_sc_hd__mux2_1
XANTENNA__27__A chany_top_in[7] VGND VGND VPWR VPWR sky130_fd_sc_hd__diode_2
XFILLER_10_27 VGND VGND VPWR VPWR sky130_fd_sc_hd__decap_4
XFILLER_27_156 VGND VGND VPWR VPWR sky130_fd_sc_hd__decap_3
XANTENNA__40__A chany_bottom_in[0] VGND VGND VPWR VPWR sky130_fd_sc_hd__diode_2
XPHY_90 VGND VPWR sky130_fd_sc_hd__tapvpwrvgnd_1
XANTENNA_mux_right_ipin_0.mux_l2_in_2__A1 chany_top_in[10] VGND VGND VPWR VPWR sky130_fd_sc_hd__diode_2
XFILLER_21_59 VGND VGND VPWR VPWR sky130_fd_sc_hd__fill_2
XFILLER_21_15 VGND VGND VPWR VPWR sky130_fd_sc_hd__decap_12
XANTENNA__35__A chany_top_in[15] VGND VGND VPWR VPWR sky130_fd_sc_hd__diode_2
XFILLER_7_39 VGND VGND VPWR VPWR sky130_fd_sc_hd__decap_12
Xmux_right_ipin_0.mux_l3_in_0_ mux_right_ipin_0.mux_l2_in_1_/X mux_right_ipin_0.mux_l2_in_0_/X
+ mux_right_ipin_0.mux_l3_in_1_/S VGND VGND VPWR VPWR mux_right_ipin_0.mux_l3_in_0_/X
+ sky130_fd_sc_hd__mux2_1
XFILLER_16_15 VGND VGND VPWR VPWR sky130_fd_sc_hd__decap_12
XFILLER_22_91 VGND VGND VPWR VPWR sky130_fd_sc_hd__fill_1
XFILLER_8_93 VGND VGND VPWR VPWR sky130_fd_sc_hd__decap_12
XFILLER_4_103 VGND VGND VPWR VPWR sky130_fd_sc_hd__fill_2
XFILLER_4_158 VGND VGND VPWR VPWR sky130_fd_sc_hd__fill_1
Xmux_right_ipin_0.mux_l2_in_1_ chany_bottom_in[10] mux_right_ipin_0.mux_l1_in_2_/X
+ mux_right_ipin_0.mux_l2_in_3_/S VGND VGND VPWR VPWR mux_right_ipin_0.mux_l2_in_1_/X
+ sky130_fd_sc_hd__mux2_1
XFILLER_24_15 VGND VGND VPWR VPWR sky130_fd_sc_hd__decap_12
Xmux_right_ipin_0.mux_l1_in_2_ chany_top_in[4] chany_bottom_in[4] mux_right_ipin_0.mux_l1_in_2_/S
+ VGND VGND VPWR VPWR mux_right_ipin_0.mux_l1_in_2_/X sky130_fd_sc_hd__mux2_1
XFILLER_5_50 VGND VGND VPWR VPWR sky130_fd_sc_hd__fill_1
XANTENNA__38__A chany_top_in[18] VGND VGND VPWR VPWR sky130_fd_sc_hd__diode_2
XFILLER_19_59 VGND VGND VPWR VPWR sky130_fd_sc_hd__fill_2
XFILLER_19_15 VGND VGND VPWR VPWR sky130_fd_sc_hd__decap_12
XFILLER_4_3 VGND VGND VPWR VPWR sky130_fd_sc_hd__decap_12
XPHY_80 VGND VPWR sky130_fd_sc_hd__tapvpwrvgnd_1
XPHY_91 VGND VPWR sky130_fd_sc_hd__tapvpwrvgnd_1
XFILLER_24_105 VGND VGND VPWR VPWR sky130_fd_sc_hd__decap_12
XFILLER_21_27 VGND VGND VPWR VPWR sky130_fd_sc_hd__decap_6
XFILLER_20_141 VGND VGND VPWR VPWR sky130_fd_sc_hd__decap_8
XFILLER_16_27 VGND VGND VPWR VPWR sky130_fd_sc_hd__decap_4
XFILLER_7_123 VGND VGND VPWR VPWR sky130_fd_sc_hd__decap_12
Xlogical_tile_io_mode_io__0.ltile_phy_iopad_0.EMBEDDED_IO_HD_0_.OUT_PROTECT_GATE right_width_0_height_0__pin_0_
+ gfpga_pad_EMBEDDED_IO_HD_SOC_DIR VGND VGND VPWR VPWR gfpga_pad_EMBEDDED_IO_HD_SOC_OUT
+ sky130_fd_sc_hd__ebufn_4
XFILLER_27_15 VGND VGND VPWR VPWR sky130_fd_sc_hd__decap_12
XANTENNA_logical_tile_io_mode_io__0.ltile_phy_iopad_0.EMBEDDED_IO_HD_0_.OUT_PROTECT_GATE_A
+ right_width_0_height_0__pin_0_ VGND VGND VPWR VPWR sky130_fd_sc_hd__diode_2
Xmux_right_ipin_0.mux_l2_in_0_ mux_right_ipin_0.mux_l1_in_1_/X mux_right_ipin_0.mux_l1_in_0_/X
+ mux_right_ipin_0.mux_l2_in_3_/S VGND VGND VPWR VPWR mux_right_ipin_0.mux_l2_in_0_/X
+ sky130_fd_sc_hd__mux2_1
XFILLER_13_17 VGND VGND VPWR VPWR sky130_fd_sc_hd__decap_12
XFILLER_24_27 VGND VGND VPWR VPWR sky130_fd_sc_hd__decap_4
Xmux_right_ipin_0.mux_l1_in_1_ chany_top_in[2] chany_bottom_in[2] mux_right_ipin_0.mux_l1_in_2_/S
+ VGND VGND VPWR VPWR mux_right_ipin_0.mux_l1_in_1_/X sky130_fd_sc_hd__mux2_1
XFILLER_27_125 VGND VGND VPWR VPWR sky130_fd_sc_hd__decap_12
XFILLER_19_27 VGND VGND VPWR VPWR sky130_fd_sc_hd__decap_12
XFILLER_18_158 VGND VGND VPWR VPWR sky130_fd_sc_hd__fill_1
XPHY_70 VGND VPWR sky130_fd_sc_hd__tapvpwrvgnd_1
XPHY_81 VGND VPWR sky130_fd_sc_hd__tapvpwrvgnd_1