* NGSPICE file created from cby_0__1_.ext - technology: sky130A

* Black-box entry subcircuit for sky130_fd_sc_hd__fill_2 abstract view
.subckt sky130_fd_sc_hd__fill_2 VGND VNB VPB VPWR
.ends

* Black-box entry subcircuit for sky130_fd_sc_hd__decap_12 abstract view
.subckt sky130_fd_sc_hd__decap_12 VGND VNB VPB VPWR
.ends

* Black-box entry subcircuit for sky130_fd_sc_hd__decap_8 abstract view
.subckt sky130_fd_sc_hd__decap_8 VGND VNB VPB VPWR
.ends

* Black-box entry subcircuit for sky130_fd_sc_hd__decap_4 abstract view
.subckt sky130_fd_sc_hd__decap_4 VGND VNB VPB VPWR
.ends

* Black-box entry subcircuit for sky130_fd_sc_hd__diode_2 abstract view
.subckt sky130_fd_sc_hd__diode_2 DIODE VGND VNB VPB VPWR
.ends

* Black-box entry subcircuit for sky130_fd_sc_hd__decap_6 abstract view
.subckt sky130_fd_sc_hd__decap_6 VGND VNB VPB VPWR
.ends

* Black-box entry subcircuit for sky130_fd_sc_hd__fill_1 abstract view
.subckt sky130_fd_sc_hd__fill_1 VGND VNB VPB VPWR
.ends

* Black-box entry subcircuit for sky130_fd_sc_hd__tapvpwrvgnd_1 abstract view
.subckt sky130_fd_sc_hd__tapvpwrvgnd_1 VGND VPWR
.ends

* Black-box entry subcircuit for sky130_fd_sc_hd__decap_3 abstract view
.subckt sky130_fd_sc_hd__decap_3 VGND VNB VPB VPWR
.ends

* Black-box entry subcircuit for sky130_fd_sc_hd__dfxbp_1 abstract view
.subckt sky130_fd_sc_hd__dfxbp_1 D Q Q_N CLK VGND VNB VPB VPWR
.ends

* Black-box entry subcircuit for sky130_fd_sc_hd__buf_2 abstract view
.subckt sky130_fd_sc_hd__buf_2 A X VGND VNB VPB VPWR
.ends

* Black-box entry subcircuit for sky130_fd_sc_hd__clkbuf_16 abstract view
.subckt sky130_fd_sc_hd__clkbuf_16 A X VGND VNB VPB VPWR
.ends

* Black-box entry subcircuit for sky130_fd_sc_hd__buf_4 abstract view
.subckt sky130_fd_sc_hd__buf_4 A X VGND VNB VPB VPWR
.ends

* Black-box entry subcircuit for sky130_fd_sc_hd__conb_1 abstract view
.subckt sky130_fd_sc_hd__conb_1 HI LO VGND VNB VPB VPWR
.ends

* Black-box entry subcircuit for sky130_fd_sc_hd__mux2_1 abstract view
.subckt sky130_fd_sc_hd__mux2_1 A0 A1 S X VGND VNB VPB VPWR
.ends

* Black-box entry subcircuit for sky130_fd_sc_hd__clkbuf_1 abstract view
.subckt sky130_fd_sc_hd__clkbuf_1 A X VGND VNB VPB VPWR
.ends

.subckt cby_0__1_ ccff_head ccff_tail chany_bottom_in[0] chany_bottom_in[10] chany_bottom_in[11]
+ chany_bottom_in[12] chany_bottom_in[13] chany_bottom_in[14] chany_bottom_in[15]
+ chany_bottom_in[16] chany_bottom_in[17] chany_bottom_in[18] chany_bottom_in[19]
+ chany_bottom_in[1] chany_bottom_in[2] chany_bottom_in[3] chany_bottom_in[4] chany_bottom_in[5]
+ chany_bottom_in[6] chany_bottom_in[7] chany_bottom_in[8] chany_bottom_in[9] chany_bottom_out[0]
+ chany_bottom_out[10] chany_bottom_out[11] chany_bottom_out[12] chany_bottom_out[13]
+ chany_bottom_out[14] chany_bottom_out[15] chany_bottom_out[16] chany_bottom_out[17]
+ chany_bottom_out[18] chany_bottom_out[19] chany_bottom_out[1] chany_bottom_out[2]
+ chany_bottom_out[3] chany_bottom_out[4] chany_bottom_out[5] chany_bottom_out[6]
+ chany_bottom_out[7] chany_bottom_out[8] chany_bottom_out[9] chany_top_in[0] chany_top_in[10]
+ chany_top_in[11] chany_top_in[12] chany_top_in[13] chany_top_in[14] chany_top_in[15]
+ chany_top_in[16] chany_top_in[17] chany_top_in[18] chany_top_in[19] chany_top_in[1]
+ chany_top_in[2] chany_top_in[3] chany_top_in[4] chany_top_in[5] chany_top_in[6]
+ chany_top_in[7] chany_top_in[8] chany_top_in[9] chany_top_out[0] chany_top_out[10]
+ chany_top_out[11] chany_top_out[12] chany_top_out[13] chany_top_out[14] chany_top_out[15]
+ chany_top_out[16] chany_top_out[17] chany_top_out[18] chany_top_out[19] chany_top_out[1]
+ chany_top_out[2] chany_top_out[3] chany_top_out[4] chany_top_out[5] chany_top_out[6]
+ chany_top_out[7] chany_top_out[8] chany_top_out[9] gfpga_pad_EMBEDDED_IO_SOC_DIR
+ gfpga_pad_EMBEDDED_IO_SOC_IN gfpga_pad_EMBEDDED_IO_SOC_OUT left_grid_pin_0_ prog_clk
+ right_width_0_height_0__pin_0_ right_width_0_height_0__pin_1_lower right_width_0_height_0__pin_1_upper
+ VPWR VGND
XFILLER_3_23 VGND VGND VPWR VPWR sky130_fd_sc_hd__fill_2
XFILLER_63_39 VGND VGND VPWR VPWR sky130_fd_sc_hd__decap_12
XFILLER_37_73 VGND VGND VPWR VPWR sky130_fd_sc_hd__decap_12
XFILLER_37_62 VGND VGND VPWR VPWR sky130_fd_sc_hd__fill_2
XFILLER_37_51 VGND VGND VPWR VPWR sky130_fd_sc_hd__decap_8
XFILLER_6_129 VGND VGND VPWR VPWR sky130_fd_sc_hd__decap_12
XFILLER_12_21 VGND VGND VPWR VPWR sky130_fd_sc_hd__decap_8
XFILLER_12_32 VGND VGND VPWR VPWR sky130_fd_sc_hd__decap_8
XFILLER_23_86 VGND VGND VPWR VPWR sky130_fd_sc_hd__decap_12
XFILLER_50_3 VGND VGND VPWR VPWR sky130_fd_sc_hd__decap_12
XFILLER_0_46 VGND VGND VPWR VPWR sky130_fd_sc_hd__decap_4
XFILLER_56_117 VGND VGND VPWR VPWR sky130_fd_sc_hd__decap_12
XFILLER_34_74 VGND VGND VPWR VPWR sky130_fd_sc_hd__fill_2
XFILLER_34_52 VGND VGND VPWR VPWR sky130_fd_sc_hd__decap_12
XANTENNA_mem_right_ipin_0.sky130_fd_sc_hd__dfxbp_1_0__CLK clkbuf_1_1_0_prog_clk/X
+ VGND VGND VPWR VPWR sky130_fd_sc_hd__diode_2
XFILLER_39_19 VGND VGND VPWR VPWR sky130_fd_sc_hd__decap_12
XFILLER_29_139 VGND VGND VPWR VPWR sky130_fd_sc_hd__decap_6
XFILLER_45_62 VGND VGND VPWR VPWR sky130_fd_sc_hd__decap_12
XFILLER_45_51 VGND VGND VPWR VPWR sky130_fd_sc_hd__decap_8
XFILLER_20_32 VGND VGND VPWR VPWR sky130_fd_sc_hd__decap_12
XFILLER_6_56 VGND VGND VPWR VPWR sky130_fd_sc_hd__decap_12
XFILLER_13_3 VGND VGND VPWR VPWR sky130_fd_sc_hd__decap_8
XFILLER_40_145 VGND VGND VPWR VPWR sky130_fd_sc_hd__fill_1
XFILLER_15_98 VGND VGND VPWR VPWR sky130_fd_sc_hd__decap_8
XFILLER_31_123 VGND VGND VPWR VPWR sky130_fd_sc_hd__decap_12
XFILLER_31_86 VGND VGND VPWR VPWR sky130_fd_sc_hd__decap_12
XPHY_192 VGND VPWR sky130_fd_sc_hd__tapvpwrvgnd_1
XPHY_181 VGND VPWR sky130_fd_sc_hd__tapvpwrvgnd_1
XPHY_170 VGND VPWR sky130_fd_sc_hd__tapvpwrvgnd_1
XFILLER_52_19 VGND VGND VPWR VPWR sky130_fd_sc_hd__decap_12
XFILLER_22_145 VGND VGND VPWR VPWR sky130_fd_sc_hd__fill_1
XANTENNA_mem_right_ipin_0.sky130_fd_sc_hd__dfxbp_1_1__D mux_right_ipin_0.mux_l1_in_2_/S
+ VGND VGND VPWR VPWR sky130_fd_sc_hd__diode_2
XANTENNA_mux_right_ipin_0.sky130_fd_sc_hd__buf_4_0__A mux_right_ipin_0.mux_l4_in_0_/X
+ VGND VGND VPWR VPWR sky130_fd_sc_hd__diode_2
XFILLER_37_85 VGND VGND VPWR VPWR sky130_fd_sc_hd__decap_12
XFILLER_53_62 VGND VGND VPWR VPWR sky130_fd_sc_hd__decap_12
XFILLER_53_40 VGND VGND VPWR VPWR sky130_fd_sc_hd__decap_12
XFILLER_52_7 VGND VGND VPWR VPWR sky130_fd_sc_hd__decap_12
XFILLER_64_94 VGND VGND VPWR VPWR sky130_fd_sc_hd__decap_12
XFILLER_23_98 VGND VGND VPWR VPWR sky130_fd_sc_hd__decap_12
XFILLER_0_58 VGND VGND VPWR VPWR sky130_fd_sc_hd__decap_4
XFILLER_56_129 VGND VGND VPWR VPWR sky130_fd_sc_hd__decap_12
XFILLER_43_3 VGND VGND VPWR VPWR sky130_fd_sc_hd__decap_12
XFILLER_34_64 VGND VGND VPWR VPWR sky130_fd_sc_hd__decap_8
XFILLER_18_32 VGND VGND VPWR VPWR sky130_fd_sc_hd__decap_12
XFILLER_61_143 VGND VGND VPWR VPWR sky130_fd_sc_hd__decap_3
XFILLER_61_110 VGND VGND VPWR VPWR sky130_fd_sc_hd__decap_12
XFILLER_52_121 VGND VGND VPWR VPWR sky130_fd_sc_hd__fill_1
Xltile_mode_io__0.ltile_physical_iopad_0.EMBEDDED_IO_mem.sky130_fd_sc_hd__dfxbp_1_0_
+ mux_right_ipin_0.mux_l4_in_0_/S ccff_tail ltile_mode_io__0.ltile_physical_iopad_0.EMBEDDED_IO_mem.sky130_fd_sc_hd__dfxbp_1_0_/Q_N
+ clkbuf_1_1_0_prog_clk/X VGND VGND VPWR VPWR sky130_fd_sc_hd__dfxbp_1
XFILLER_29_97 VGND VGND VPWR VPWR sky130_fd_sc_hd__fill_2
XFILLER_1_90 VGND VGND VPWR VPWR sky130_fd_sc_hd__decap_12
XFILLER_61_62 VGND VGND VPWR VPWR sky130_fd_sc_hd__decap_12
XFILLER_61_51 VGND VGND VPWR VPWR sky130_fd_sc_hd__decap_8
XFILLER_45_74 VGND VGND VPWR VPWR sky130_fd_sc_hd__decap_6
XFILLER_43_143 VGND VGND VPWR VPWR sky130_fd_sc_hd__decap_3
XFILLER_43_110 VGND VGND VPWR VPWR sky130_fd_sc_hd__decap_12
XFILLER_6_68 VGND VGND VPWR VPWR sky130_fd_sc_hd__decap_12
XFILLER_25_143 VGND VGND VPWR VPWR sky130_fd_sc_hd__decap_3
XFILLER_25_110 VGND VGND VPWR VPWR sky130_fd_sc_hd__decap_12
XFILLER_31_135 VGND VGND VPWR VPWR sky130_fd_sc_hd__decap_8
XFILLER_31_98 VGND VGND VPWR VPWR sky130_fd_sc_hd__decap_12
XPHY_193 VGND VPWR sky130_fd_sc_hd__tapvpwrvgnd_1
XPHY_182 VGND VPWR sky130_fd_sc_hd__tapvpwrvgnd_1
XPHY_171 VGND VPWR sky130_fd_sc_hd__tapvpwrvgnd_1
XPHY_160 VGND VPWR sky130_fd_sc_hd__tapvpwrvgnd_1
XANTENNA_mux_right_ipin_0.mux_l1_in_0__S mux_right_ipin_0.mux_l1_in_2_/S VGND VGND
+ VPWR VPWR sky130_fd_sc_hd__diode_2
XFILLER_26_32 VGND VGND VPWR VPWR sky130_fd_sc_hd__decap_12
XFILLER_10_105 VGND VGND VPWR VPWR sky130_fd_sc_hd__decap_12
XFILLER_53_52 VGND VGND VPWR VPWR sky130_fd_sc_hd__decap_8
XFILLER_53_30 VGND VGND VPWR VPWR sky130_fd_sc_hd__fill_2
XFILLER_37_97 VGND VGND VPWR VPWR sky130_fd_sc_hd__decap_12
XFILLER_5_131 VGND VGND VPWR VPWR sky130_fd_sc_hd__decap_12
XFILLER_0_26 VGND VGND VPWR VPWR sky130_fd_sc_hd__decap_4
XFILLER_2_145 VGND VGND VPWR VPWR sky130_fd_sc_hd__fill_1
XFILLER_3_3 VGND VGND VPWR VPWR sky130_fd_sc_hd__decap_12
XFILLER_36_3 VGND VGND VPWR VPWR sky130_fd_sc_hd__decap_12
XFILLER_34_32 VGND VGND VPWR VPWR sky130_fd_sc_hd__decap_6
XFILLER_18_44 VGND VGND VPWR VPWR sky130_fd_sc_hd__decap_12
XFILLER_59_62 VGND VGND VPWR VPWR sky130_fd_sc_hd__decap_12
XFILLER_59_51 VGND VGND VPWR VPWR sky130_fd_sc_hd__decap_8
XFILLER_46_141 VGND VGND VPWR VPWR sky130_fd_sc_hd__decap_4
XANTENNA_mux_right_ipin_0.mux_l1_in_1__A0 chany_top_in[2] VGND VGND VPWR VPWR sky130_fd_sc_hd__diode_2
XANTENNA_clkbuf_1_0_0_prog_clk_A clkbuf_0_prog_clk/X VGND VGND VPWR VPWR sky130_fd_sc_hd__diode_2
XFILLER_20_78 VGND VGND VPWR VPWR sky130_fd_sc_hd__decap_12
XFILLER_61_74 VGND VGND VPWR VPWR sky130_fd_sc_hd__decap_12
XFILLER_28_141 VGND VGND VPWR VPWR sky130_fd_sc_hd__decap_4
XANTENNA__04__A chany_bottom_in[12] VGND VGND VPWR VPWR sky130_fd_sc_hd__diode_2
XANTENNA_mux_right_ipin_0.mux_l2_in_0__A0 mux_right_ipin_0.mux_l1_in_1_/X VGND VGND
+ VPWR VPWR sky130_fd_sc_hd__diode_2
XPHY_194 VGND VPWR sky130_fd_sc_hd__tapvpwrvgnd_1
XPHY_183 VGND VPWR sky130_fd_sc_hd__tapvpwrvgnd_1
XPHY_172 VGND VPWR sky130_fd_sc_hd__tapvpwrvgnd_1
XPHY_150 VGND VPWR sky130_fd_sc_hd__tapvpwrvgnd_1
XPHY_161 VGND VPWR sky130_fd_sc_hd__tapvpwrvgnd_1
XFILLER_42_32 VGND VGND VPWR VPWR sky130_fd_sc_hd__decap_12
XFILLER_26_44 VGND VGND VPWR VPWR sky130_fd_sc_hd__decap_12
XFILLER_3_15 VGND VGND VPWR VPWR sky130_fd_sc_hd__decap_8
XFILLER_10_117 VGND VGND VPWR VPWR sky130_fd_sc_hd__decap_12
XFILLER_5_110 VGND VGND VPWR VPWR sky130_fd_sc_hd__decap_12
XFILLER_5_143 VGND VGND VPWR VPWR sky130_fd_sc_hd__decap_3
XANTENNA_mem_right_ipin_0.sky130_fd_sc_hd__dfxbp_1_3__CLK clkbuf_1_0_0_prog_clk/X
+ VGND VGND VPWR VPWR sky130_fd_sc_hd__diode_2
XFILLER_4_91 VGND VGND VPWR VPWR sky130_fd_sc_hd__fill_1
XANTENNA__12__A chany_bottom_in[4] VGND VGND VPWR VPWR sky130_fd_sc_hd__diode_2
XFILLER_64_63 VGND VGND VPWR VPWR sky130_fd_sc_hd__decap_12
XFILLER_29_3 VGND VGND VPWR VPWR sky130_fd_sc_hd__decap_12
XFILLER_18_56 VGND VGND VPWR VPWR sky130_fd_sc_hd__decap_12
XANTENNA__07__A chany_bottom_in[9] VGND VGND VPWR VPWR sky130_fd_sc_hd__diode_2
XFILLER_61_123 VGND VGND VPWR VPWR sky130_fd_sc_hd__decap_12
XFILLER_59_74 VGND VGND VPWR VPWR sky130_fd_sc_hd__decap_12
XFILLER_50_65 VGND VGND VPWR VPWR sky130_fd_sc_hd__decap_12
XFILLER_50_54 VGND VGND VPWR VPWR sky130_fd_sc_hd__fill_2
XFILLER_50_32 VGND VGND VPWR VPWR sky130_fd_sc_hd__decap_12
XANTENNA_mux_right_ipin_0.mux_l1_in_1__A1 chany_bottom_in[2] VGND VGND VPWR VPWR sky130_fd_sc_hd__diode_2
X_29_ chany_top_in[11] chany_bottom_out[11] VGND VGND VPWR VPWR sky130_fd_sc_hd__buf_2
XFILLER_61_86 VGND VGND VPWR VPWR sky130_fd_sc_hd__decap_12
XFILLER_43_123 VGND VGND VPWR VPWR sky130_fd_sc_hd__decap_12
XFILLER_6_15 VGND VGND VPWR VPWR sky130_fd_sc_hd__decap_12
XFILLER_34_145 VGND VGND VPWR VPWR sky130_fd_sc_hd__fill_1
XANTENNA__20__A gfpga_pad_EMBEDDED_IO_SOC_IN VGND VGND VPWR VPWR sky130_fd_sc_hd__diode_2
XFILLER_25_123 VGND VGND VPWR VPWR sky130_fd_sc_hd__decap_12
XANTENNA_mux_right_ipin_0.mux_l2_in_0__A1 mux_right_ipin_0.mux_l1_in_0_/X VGND VGND
+ VPWR VPWR sky130_fd_sc_hd__diode_2
XPHY_195 VGND VPWR sky130_fd_sc_hd__tapvpwrvgnd_1
XPHY_184 VGND VPWR sky130_fd_sc_hd__tapvpwrvgnd_1
XPHY_173 VGND VPWR sky130_fd_sc_hd__tapvpwrvgnd_1
XFILLER_16_145 VGND VGND VPWR VPWR sky130_fd_sc_hd__fill_1
XPHY_140 VGND VPWR sky130_fd_sc_hd__tapvpwrvgnd_1
XPHY_151 VGND VPWR sky130_fd_sc_hd__tapvpwrvgnd_1
XFILLER_11_3 VGND VGND VPWR VPWR sky130_fd_sc_hd__fill_2
XPHY_162 VGND VPWR sky130_fd_sc_hd__tapvpwrvgnd_1
XFILLER_26_56 VGND VGND VPWR VPWR sky130_fd_sc_hd__decap_12
XFILLER_42_44 VGND VGND VPWR VPWR sky130_fd_sc_hd__decap_12
XANTENNA__15__A chany_bottom_in[1] VGND VGND VPWR VPWR sky130_fd_sc_hd__diode_2
XFILLER_59_3 VGND VGND VPWR VPWR sky130_fd_sc_hd__decap_12
XFILLER_8_141 VGND VGND VPWR VPWR sky130_fd_sc_hd__decap_4
XFILLER_10_129 VGND VGND VPWR VPWR sky130_fd_sc_hd__decap_12
XFILLER_53_76 VGND VGND VPWR VPWR sky130_fd_sc_hd__decap_12
XFILLER_12_47 VGND VGND VPWR VPWR sky130_fd_sc_hd__decap_12
XFILLER_48_32 VGND VGND VPWR VPWR sky130_fd_sc_hd__decap_12
XFILLER_64_75 VGND VGND VPWR VPWR sky130_fd_sc_hd__decap_12
XFILLER_0_17 VGND VGND VPWR VPWR sky130_fd_sc_hd__fill_1
XFILLER_9_15 VGND VGND VPWR VPWR sky130_fd_sc_hd__decap_12
XFILLER_9_59 VGND VGND VPWR VPWR sky130_fd_sc_hd__fill_2
XFILLER_55_143 VGND VGND VPWR VPWR sky130_fd_sc_hd__decap_3
XFILLER_55_110 VGND VGND VPWR VPWR sky130_fd_sc_hd__decap_12
XFILLER_18_68 VGND VGND VPWR VPWR sky130_fd_sc_hd__decap_12
X_45_ chany_bottom_in[15] chany_top_out[15] VGND VGND VPWR VPWR sky130_fd_sc_hd__buf_2
XFILLER_61_135 VGND VGND VPWR VPWR sky130_fd_sc_hd__decap_8
XFILLER_59_86 VGND VGND VPWR VPWR sky130_fd_sc_hd__decap_12
XFILLER_50_99 VGND VGND VPWR VPWR sky130_fd_sc_hd__decap_12
XFILLER_50_77 VGND VGND VPWR VPWR sky130_fd_sc_hd__decap_12
XFILLER_34_78 VGND VGND VPWR VPWR sky130_fd_sc_hd__decap_12
XANTENNA__23__A chany_top_in[17] VGND VGND VPWR VPWR sky130_fd_sc_hd__diode_2
XFILLER_41_3 VGND VGND VPWR VPWR sky130_fd_sc_hd__decap_12
XFILLER_37_143 VGND VGND VPWR VPWR sky130_fd_sc_hd__decap_3
X_28_ chany_top_in[12] chany_bottom_out[12] VGND VGND VPWR VPWR sky130_fd_sc_hd__buf_2
XFILLER_61_98 VGND VGND VPWR VPWR sky130_fd_sc_hd__decap_12
XFILLER_43_135 VGND VGND VPWR VPWR sky130_fd_sc_hd__decap_8
XANTENNA__18__A right_width_0_height_0__pin_0_ VGND VGND VPWR VPWR sky130_fd_sc_hd__diode_2
XFILLER_19_143 VGND VGND VPWR VPWR sky130_fd_sc_hd__decap_3
XFILLER_19_110 VGND VGND VPWR VPWR sky130_fd_sc_hd__decap_12
XFILLER_6_27 VGND VGND VPWR VPWR sky130_fd_sc_hd__decap_4
XFILLER_10_80 VGND VGND VPWR VPWR sky130_fd_sc_hd__decap_12
XFILLER_40_105 VGND VGND VPWR VPWR sky130_fd_sc_hd__decap_12
XFILLER_25_135 VGND VGND VPWR VPWR sky130_fd_sc_hd__decap_8
XFILLER_56_32 VGND VGND VPWR VPWR sky130_fd_sc_hd__decap_12
XPHY_196 VGND VPWR sky130_fd_sc_hd__tapvpwrvgnd_1
XPHY_185 VGND VPWR sky130_fd_sc_hd__tapvpwrvgnd_1
XPHY_174 VGND VPWR sky130_fd_sc_hd__tapvpwrvgnd_1
XPHY_130 VGND VPWR sky130_fd_sc_hd__tapvpwrvgnd_1
XPHY_141 VGND VPWR sky130_fd_sc_hd__tapvpwrvgnd_1
XPHY_152 VGND VPWR sky130_fd_sc_hd__tapvpwrvgnd_1
XPHY_163 VGND VPWR sky130_fd_sc_hd__tapvpwrvgnd_1
XFILLER_22_105 VGND VGND VPWR VPWR sky130_fd_sc_hd__decap_12
XANTENNA_mux_right_ipin_0.mux_l2_in_1__S mux_right_ipin_0.mux_l2_in_1_/S VGND VGND
+ VPWR VPWR sky130_fd_sc_hd__diode_2
XFILLER_42_56 VGND VGND VPWR VPWR sky130_fd_sc_hd__decap_12
XFILLER_26_68 VGND VGND VPWR VPWR sky130_fd_sc_hd__decap_12
XANTENNA__31__A chany_top_in[9] VGND VGND VPWR VPWR sky130_fd_sc_hd__diode_2
XFILLER_13_127 VGND VGND VPWR VPWR sky130_fd_sc_hd__fill_2
XFILLER_53_88 VGND VGND VPWR VPWR sky130_fd_sc_hd__decap_12
XFILLER_53_11 VGND VGND VPWR VPWR sky130_fd_sc_hd__decap_12
XANTENNA__26__A chany_top_in[14] VGND VGND VPWR VPWR sky130_fd_sc_hd__diode_2
XFILLER_12_59 VGND VGND VPWR VPWR sky130_fd_sc_hd__decap_12
XFILLER_4_93 VGND VGND VPWR VPWR sky130_fd_sc_hd__decap_12
XFILLER_64_87 VGND VGND VPWR VPWR sky130_fd_sc_hd__decap_6
XFILLER_64_32 VGND VGND VPWR VPWR sky130_fd_sc_hd__decap_12
XFILLER_58_141 VGND VGND VPWR VPWR sky130_fd_sc_hd__decap_4
XFILLER_48_88 VGND VGND VPWR VPWR sky130_fd_sc_hd__fill_2
XFILLER_48_44 VGND VGND VPWR VPWR sky130_fd_sc_hd__decap_12
XFILLER_9_27 VGND VGND VPWR VPWR sky130_fd_sc_hd__decap_12
X_44_ chany_bottom_in[16] chany_top_out[16] VGND VGND VPWR VPWR sky130_fd_sc_hd__buf_2
XFILLER_59_98 VGND VGND VPWR VPWR sky130_fd_sc_hd__decap_12
XFILLER_50_89 VGND VGND VPWR VPWR sky130_fd_sc_hd__fill_1
XFILLER_1_3 VGND VGND VPWR VPWR sky130_fd_sc_hd__fill_1
XFILLER_34_3 VGND VGND VPWR VPWR sky130_fd_sc_hd__decap_12
X_27_ chany_top_in[13] chany_bottom_out[13] VGND VGND VPWR VPWR sky130_fd_sc_hd__buf_2
XFILLER_29_68 VGND VGND VPWR VPWR sky130_fd_sc_hd__fill_1
XFILLER_20_15 VGND VGND VPWR VPWR sky130_fd_sc_hd__decap_12
XANTENNA_mux_right_ipin_0.mux_l2_in_3__A0 _01_/HI VGND VGND VPWR VPWR sky130_fd_sc_hd__diode_2
XANTENNA__34__A chany_top_in[6] VGND VGND VPWR VPWR sky130_fd_sc_hd__diode_2
XFILLER_40_117 VGND VGND VPWR VPWR sky130_fd_sc_hd__decap_12
XFILLER_15_15 VGND VGND VPWR VPWR sky130_fd_sc_hd__decap_12
XFILLER_15_59 VGND VGND VPWR VPWR sky130_fd_sc_hd__fill_2
XPHY_120 VGND VGND VPWR VPWR sky130_fd_sc_hd__decap_3
XFILLER_56_44 VGND VGND VPWR VPWR sky130_fd_sc_hd__decap_12
XPHY_197 VGND VPWR sky130_fd_sc_hd__tapvpwrvgnd_1
XPHY_186 VGND VPWR sky130_fd_sc_hd__tapvpwrvgnd_1
XPHY_175 VGND VPWR sky130_fd_sc_hd__tapvpwrvgnd_1
XPHY_164 VGND VPWR sky130_fd_sc_hd__tapvpwrvgnd_1
XANTENNA__29__A chany_top_in[11] VGND VGND VPWR VPWR sky130_fd_sc_hd__diode_2
XPHY_131 VGND VPWR sky130_fd_sc_hd__tapvpwrvgnd_1
XPHY_142 VGND VPWR sky130_fd_sc_hd__tapvpwrvgnd_1
XPHY_153 VGND VPWR sky130_fd_sc_hd__tapvpwrvgnd_1
XFILLER_22_117 VGND VGND VPWR VPWR sky130_fd_sc_hd__decap_12
XPHY_0 VGND VGND VPWR VPWR sky130_fd_sc_hd__decap_3
XFILLER_7_71 VGND VGND VPWR VPWR sky130_fd_sc_hd__fill_2
XFILLER_7_93 VGND VGND VPWR VPWR sky130_fd_sc_hd__fill_1
XFILLER_42_68 VGND VGND VPWR VPWR sky130_fd_sc_hd__decap_12
XFILLER_3_29 VGND VGND VPWR VPWR sky130_fd_sc_hd__fill_2
XFILLER_13_106 VGND VGND VPWR VPWR sky130_fd_sc_hd__fill_1
XFILLER_16_80 VGND VGND VPWR VPWR sky130_fd_sc_hd__decap_12
XFILLER_53_34 VGND VGND VPWR VPWR sky130_fd_sc_hd__decap_4
XFILLER_53_23 VGND VGND VPWR VPWR sky130_fd_sc_hd__decap_3
XANTENNA__42__A chany_bottom_in[18] VGND VGND VPWR VPWR sky130_fd_sc_hd__diode_2
XFILLER_64_3 VGND VGND VPWR VPWR sky130_fd_sc_hd__decap_12
XFILLER_23_59 VGND VGND VPWR VPWR sky130_fd_sc_hd__fill_2
XFILLER_23_15 VGND VGND VPWR VPWR sky130_fd_sc_hd__decap_12
XFILLER_64_44 VGND VGND VPWR VPWR sky130_fd_sc_hd__decap_12
XFILLER_48_56 VGND VGND VPWR VPWR sky130_fd_sc_hd__decap_12
XFILLER_2_105 VGND VGND VPWR VPWR sky130_fd_sc_hd__decap_12
XFILLER_9_39 VGND VGND VPWR VPWR sky130_fd_sc_hd__decap_12
XANTENNA__37__A chany_top_in[3] VGND VGND VPWR VPWR sky130_fd_sc_hd__diode_2
XFILLER_64_145 VGND VGND VPWR VPWR sky130_fd_sc_hd__fill_1
X_43_ chany_bottom_in[17] chany_top_out[17] VGND VGND VPWR VPWR sky130_fd_sc_hd__buf_2
XFILLER_55_123 VGND VGND VPWR VPWR sky130_fd_sc_hd__decap_12
XFILLER_50_46 VGND VGND VPWR VPWR sky130_fd_sc_hd__decap_8
XFILLER_18_15 VGND VGND VPWR VPWR sky130_fd_sc_hd__decap_12
XFILLER_46_145 VGND VGND VPWR VPWR sky130_fd_sc_hd__fill_1
XFILLER_27_3 VGND VGND VPWR VPWR sky130_fd_sc_hd__decap_8
XFILLER_24_80 VGND VGND VPWR VPWR sky130_fd_sc_hd__decap_12
XFILLER_52_126 VGND VGND VPWR VPWR sky130_fd_sc_hd__decap_12
XFILLER_37_123 VGND VGND VPWR VPWR sky130_fd_sc_hd__decap_12
XFILLER_28_145 VGND VGND VPWR VPWR sky130_fd_sc_hd__fill_1
XFILLER_20_27 VGND VGND VPWR VPWR sky130_fd_sc_hd__decap_4
XFILLER_1_62 VGND VGND VPWR VPWR sky130_fd_sc_hd__decap_12
X_26_ chany_top_in[14] chany_bottom_out[14] VGND VGND VPWR VPWR sky130_fd_sc_hd__buf_2
XANTENNA_mux_right_ipin_0.mux_l2_in_3__A1 chany_top_in[16] VGND VGND VPWR VPWR sky130_fd_sc_hd__diode_2
XFILLER_19_123 VGND VGND VPWR VPWR sky130_fd_sc_hd__decap_12
XFILLER_10_93 VGND VGND VPWR VPWR sky130_fd_sc_hd__decap_12
XFILLER_40_129 VGND VGND VPWR VPWR sky130_fd_sc_hd__decap_12
XFILLER_35_90 VGND VGND VPWR VPWR sky130_fd_sc_hd__decap_12
X_09_ chany_bottom_in[7] chany_top_out[7] VGND VGND VPWR VPWR sky130_fd_sc_hd__buf_2
XFILLER_15_27 VGND VGND VPWR VPWR sky130_fd_sc_hd__decap_12
XPHY_121 VGND VGND VPWR VPWR sky130_fd_sc_hd__decap_3
XFILLER_56_56 VGND VGND VPWR VPWR sky130_fd_sc_hd__decap_12
XPHY_110 VGND VGND VPWR VPWR sky130_fd_sc_hd__decap_3
XPHY_198 VGND VPWR sky130_fd_sc_hd__tapvpwrvgnd_1
XFILLER_31_59 VGND VGND VPWR VPWR sky130_fd_sc_hd__fill_2
XFILLER_31_15 VGND VGND VPWR VPWR sky130_fd_sc_hd__decap_12
XPHY_187 VGND VPWR sky130_fd_sc_hd__tapvpwrvgnd_1
XPHY_176 VGND VPWR sky130_fd_sc_hd__tapvpwrvgnd_1
XPHY_165 VGND VPWR sky130_fd_sc_hd__tapvpwrvgnd_1
XANTENNA__45__A chany_bottom_in[15] VGND VGND VPWR VPWR sky130_fd_sc_hd__diode_2
XPHY_132 VGND VPWR sky130_fd_sc_hd__tapvpwrvgnd_1
XPHY_143 VGND VPWR sky130_fd_sc_hd__tapvpwrvgnd_1
XPHY_154 VGND VPWR sky130_fd_sc_hd__tapvpwrvgnd_1
XFILLER_22_129 VGND VGND VPWR VPWR sky130_fd_sc_hd__decap_12
XPHY_1 VGND VGND VPWR VPWR sky130_fd_sc_hd__decap_3
XFILLER_26_15 VGND VGND VPWR VPWR sky130_fd_sc_hd__decap_12
XFILLER_32_80 VGND VGND VPWR VPWR sky130_fd_sc_hd__decap_12
XFILLER_57_3 VGND VGND VPWR VPWR sky130_fd_sc_hd__decap_12
XFILLER_64_56 VGND VGND VPWR VPWR sky130_fd_sc_hd__decap_6
XFILLER_48_68 VGND VGND VPWR VPWR sky130_fd_sc_hd__decap_12
XFILLER_23_27 VGND VGND VPWR VPWR sky130_fd_sc_hd__decap_12
XFILLER_2_117 VGND VGND VPWR VPWR sky130_fd_sc_hd__decap_12
XFILLER_49_143 VGND VGND VPWR VPWR sky130_fd_sc_hd__decap_3
XFILLER_38_90 VGND VGND VPWR VPWR sky130_fd_sc_hd__fill_2
X_42_ chany_bottom_in[18] chany_top_out[18] VGND VGND VPWR VPWR sky130_fd_sc_hd__buf_2
XFILLER_55_135 VGND VGND VPWR VPWR sky130_fd_sc_hd__decap_8
XFILLER_34_48 VGND VGND VPWR VPWR sky130_fd_sc_hd__fill_2
XFILLER_34_15 VGND VGND VPWR VPWR sky130_fd_sc_hd__decap_12
XFILLER_18_27 VGND VGND VPWR VPWR sky130_fd_sc_hd__decap_4
XFILLER_40_80 VGND VGND VPWR VPWR sky130_fd_sc_hd__decap_12
XFILLER_52_138 VGND VGND VPWR VPWR sky130_fd_sc_hd__decap_8
XFILLER_52_105 VGND VGND VPWR VPWR sky130_fd_sc_hd__decap_12
XFILLER_37_135 VGND VGND VPWR VPWR sky130_fd_sc_hd__decap_8
XFILLER_29_15 VGND VGND VPWR VPWR sky130_fd_sc_hd__decap_12
X_25_ chany_top_in[15] chany_bottom_out[15] VGND VGND VPWR VPWR sky130_fd_sc_hd__buf_2
XFILLER_1_74 VGND VGND VPWR VPWR sky130_fd_sc_hd__decap_6
XFILLER_29_59 VGND VGND VPWR VPWR sky130_fd_sc_hd__fill_2
XFILLER_34_105 VGND VGND VPWR VPWR sky130_fd_sc_hd__decap_12
XFILLER_19_135 VGND VGND VPWR VPWR sky130_fd_sc_hd__decap_8
X_08_ chany_bottom_in[8] chany_top_out[8] VGND VGND VPWR VPWR sky130_fd_sc_hd__buf_2
XFILLER_56_68 VGND VGND VPWR VPWR sky130_fd_sc_hd__decap_12
XPHY_100 VGND VGND VPWR VPWR sky130_fd_sc_hd__decap_3
XFILLER_31_27 VGND VGND VPWR VPWR sky130_fd_sc_hd__decap_12
XFILLER_16_105 VGND VGND VPWR VPWR sky130_fd_sc_hd__decap_12
XFILLER_15_39 VGND VGND VPWR VPWR sky130_fd_sc_hd__decap_12
XPHY_122 VGND VGND VPWR VPWR sky130_fd_sc_hd__decap_3
XPHY_111 VGND VGND VPWR VPWR sky130_fd_sc_hd__decap_3
XPHY_199 VGND VPWR sky130_fd_sc_hd__tapvpwrvgnd_1
XPHY_188 VGND VPWR sky130_fd_sc_hd__tapvpwrvgnd_1
XPHY_177 VGND VPWR sky130_fd_sc_hd__tapvpwrvgnd_1
XPHY_166 VGND VPWR sky130_fd_sc_hd__tapvpwrvgnd_1
XPHY_133 VGND VPWR sky130_fd_sc_hd__tapvpwrvgnd_1
XPHY_2 VGND VGND VPWR VPWR sky130_fd_sc_hd__decap_3
XPHY_144 VGND VPWR sky130_fd_sc_hd__tapvpwrvgnd_1
XFILLER_11_7 VGND VGND VPWR VPWR sky130_fd_sc_hd__decap_12
XPHY_155 VGND VPWR sky130_fd_sc_hd__tapvpwrvgnd_1
XFILLER_42_15 VGND VGND VPWR VPWR sky130_fd_sc_hd__decap_12
XFILLER_26_27 VGND VGND VPWR VPWR sky130_fd_sc_hd__decap_4
XFILLER_7_51 VGND VGND VPWR VPWR sky130_fd_sc_hd__decap_8
XFILLER_7_62 VGND VGND VPWR VPWR sky130_fd_sc_hd__fill_1
XFILLER_16_93 VGND VGND VPWR VPWR sky130_fd_sc_hd__decap_12
XFILLER_8_145 VGND VGND VPWR VPWR sky130_fd_sc_hd__fill_1
XFILLER_12_141 VGND VGND VPWR VPWR sky130_fd_sc_hd__decap_4
XFILLER_12_29 VGND VGND VPWR VPWR sky130_fd_sc_hd__fill_2
XFILLER_37_15 VGND VGND VPWR VPWR sky130_fd_sc_hd__decap_12
XFILLER_23_39 VGND VGND VPWR VPWR sky130_fd_sc_hd__decap_12
XFILLER_2_129 VGND VGND VPWR VPWR sky130_fd_sc_hd__decap_12
XFILLER_64_125 VGND VGND VPWR VPWR sky130_fd_sc_hd__decap_12
XFILLER_49_111 VGND VGND VPWR VPWR sky130_fd_sc_hd__decap_8
X_41_ chany_bottom_in[19] chany_top_out[19] VGND VGND VPWR VPWR sky130_fd_sc_hd__buf_2
XFILLER_13_50 VGND VGND VPWR VPWR sky130_fd_sc_hd__decap_8
XFILLER_54_90 VGND VGND VPWR VPWR sky130_fd_sc_hd__fill_2
XFILLER_34_38 VGND VGND VPWR VPWR sky130_fd_sc_hd__fill_1
XFILLER_34_27 VGND VGND VPWR VPWR sky130_fd_sc_hd__decap_4
XFILLER_50_15 VGND VGND VPWR VPWR sky130_fd_sc_hd__decap_12
XFILLER_24_93 VGND VGND VPWR VPWR sky130_fd_sc_hd__decap_12
XFILLER_52_117 VGND VGND VPWR VPWR sky130_fd_sc_hd__decap_4
XFILLER_1_86 VGND VGND VPWR VPWR sky130_fd_sc_hd__fill_2
XFILLER_1_42 VGND VGND VPWR VPWR sky130_fd_sc_hd__fill_2
XFILLER_1_20 VGND VGND VPWR VPWR sky130_fd_sc_hd__fill_2
X_24_ chany_top_in[16] chany_bottom_out[16] VGND VGND VPWR VPWR sky130_fd_sc_hd__buf_2
XFILLER_45_59 VGND VGND VPWR VPWR sky130_fd_sc_hd__fill_2
XFILLER_45_15 VGND VGND VPWR VPWR sky130_fd_sc_hd__decap_12
XFILLER_29_27 VGND VGND VPWR VPWR sky130_fd_sc_hd__decap_12
XFILLER_34_117 VGND VGND VPWR VPWR sky130_fd_sc_hd__decap_12
XFILLER_32_3 VGND VGND VPWR VPWR sky130_fd_sc_hd__decap_12
XFILLER_31_39 VGND VGND VPWR VPWR sky130_fd_sc_hd__decap_12
X_07_ chany_bottom_in[9] chany_top_out[9] VGND VGND VPWR VPWR sky130_fd_sc_hd__buf_2
XPHY_123 VGND VGND VPWR VPWR sky130_fd_sc_hd__decap_3
XPHY_112 VGND VGND VPWR VPWR sky130_fd_sc_hd__decap_3
XPHY_101 VGND VGND VPWR VPWR sky130_fd_sc_hd__decap_3
XPHY_189 VGND VPWR sky130_fd_sc_hd__tapvpwrvgnd_1
XPHY_178 VGND VPWR sky130_fd_sc_hd__tapvpwrvgnd_1
XPHY_167 VGND VPWR sky130_fd_sc_hd__tapvpwrvgnd_1
XFILLER_16_117 VGND VGND VPWR VPWR sky130_fd_sc_hd__decap_12
XPHY_134 VGND VPWR sky130_fd_sc_hd__tapvpwrvgnd_1
XPHY_145 VGND VPWR sky130_fd_sc_hd__tapvpwrvgnd_1
XPHY_156 VGND VPWR sky130_fd_sc_hd__tapvpwrvgnd_1
XFILLER_46_80 VGND VGND VPWR VPWR sky130_fd_sc_hd__fill_2
XPHY_3 VGND VGND VPWR VPWR sky130_fd_sc_hd__decap_3
XFILLER_13_109 VGND VGND VPWR VPWR sky130_fd_sc_hd__decap_12
XFILLER_42_27 VGND VGND VPWR VPWR sky130_fd_sc_hd__decap_4
XFILLER_32_93 VGND VGND VPWR VPWR sky130_fd_sc_hd__decap_12
XFILLER_37_27 VGND VGND VPWR VPWR sky130_fd_sc_hd__decap_12
XFILLER_5_127 VGND VGND VPWR VPWR sky130_fd_sc_hd__fill_2
XFILLER_27_60 VGND VGND VPWR VPWR sky130_fd_sc_hd__fill_1
XFILLER_48_15 VGND VGND VPWR VPWR sky130_fd_sc_hd__fill_2
XFILLER_58_145 VGND VGND VPWR VPWR sky130_fd_sc_hd__fill_1
XFILLER_49_123 VGND VGND VPWR VPWR sky130_fd_sc_hd__decap_12
X_40_ chany_top_in[0] chany_bottom_out[0] VGND VGND VPWR VPWR sky130_fd_sc_hd__buf_2
XFILLER_13_62 VGND VGND VPWR VPWR sky130_fd_sc_hd__decap_12
XFILLER_64_137 VGND VGND VPWR VPWR sky130_fd_sc_hd__decap_8
XFILLER_62_3 VGND VGND VPWR VPWR sky130_fd_sc_hd__decap_12
XFILLER_50_27 VGND VGND VPWR VPWR sky130_fd_sc_hd__decap_4
XFILLER_40_93 VGND VGND VPWR VPWR sky130_fd_sc_hd__decap_12
XFILLER_37_115 VGND VGND VPWR VPWR sky130_fd_sc_hd__fill_1
X_23_ chany_top_in[17] chany_bottom_out[17] VGND VGND VPWR VPWR sky130_fd_sc_hd__buf_2
XFILLER_61_59 VGND VGND VPWR VPWR sky130_fd_sc_hd__fill_2
XFILLER_61_15 VGND VGND VPWR VPWR sky130_fd_sc_hd__decap_12
XFILLER_45_27 VGND VGND VPWR VPWR sky130_fd_sc_hd__decap_12
XANTENNA_ltile_mode_io__0.ltile_physical_iopad_0.EMBEDDED_IO_mem.sky130_fd_sc_hd__dfxbp_1_0__CLK
+ clkbuf_1_1_0_prog_clk/X VGND VGND VPWR VPWR sky130_fd_sc_hd__diode_2
XFILLER_29_39 VGND VGND VPWR VPWR sky130_fd_sc_hd__decap_12
XFILLER_34_129 VGND VGND VPWR VPWR sky130_fd_sc_hd__decap_12
XFILLER_19_50 VGND VGND VPWR VPWR sky130_fd_sc_hd__decap_8
X_06_ chany_bottom_in[10] chany_top_out[10] VGND VGND VPWR VPWR sky130_fd_sc_hd__buf_2
XFILLER_25_3 VGND VGND VPWR VPWR sky130_fd_sc_hd__decap_12
XPHY_124 VGND VGND VPWR VPWR sky130_fd_sc_hd__decap_3
XPHY_113 VGND VGND VPWR VPWR sky130_fd_sc_hd__decap_3
XFILLER_56_15 VGND VGND VPWR VPWR sky130_fd_sc_hd__decap_12
XPHY_102 VGND VGND VPWR VPWR sky130_fd_sc_hd__decap_3
XPHY_179 VGND VPWR sky130_fd_sc_hd__tapvpwrvgnd_1
XFILLER_21_95 VGND VGND VPWR VPWR sky130_fd_sc_hd__decap_12
XFILLER_21_62 VGND VGND VPWR VPWR sky130_fd_sc_hd__decap_12
XPHY_168 VGND VPWR sky130_fd_sc_hd__tapvpwrvgnd_1
XFILLER_16_129 VGND VGND VPWR VPWR sky130_fd_sc_hd__decap_12
XPHY_135 VGND VPWR sky130_fd_sc_hd__tapvpwrvgnd_1
XPHY_146 VGND VPWR sky130_fd_sc_hd__tapvpwrvgnd_1
XPHY_157 VGND VPWR sky130_fd_sc_hd__tapvpwrvgnd_1
XFILLER_62_80 VGND VGND VPWR VPWR sky130_fd_sc_hd__decap_12
XPHY_4 VGND VGND VPWR VPWR sky130_fd_sc_hd__decap_3
XFILLER_7_75 VGND VGND VPWR VPWR sky130_fd_sc_hd__decap_12
XANTENNA_clkbuf_1_1_0_prog_clk_A clkbuf_0_prog_clk/X VGND VGND VPWR VPWR sky130_fd_sc_hd__diode_2
XFILLER_21_143 VGND VGND VPWR VPWR sky130_fd_sc_hd__decap_3
XFILLER_37_39 VGND VGND VPWR VPWR sky130_fd_sc_hd__decap_12
XFILLER_4_32 VGND VGND VPWR VPWR sky130_fd_sc_hd__decap_6
XFILLER_4_43 VGND VGND VPWR VPWR sky130_fd_sc_hd__decap_12
XFILLER_64_15 VGND VGND VPWR VPWR sky130_fd_sc_hd__decap_12
XANTENNA_mux_right_ipin_0.mux_l4_in_0__S mux_right_ipin_0.mux_l4_in_0_/S VGND VGND
+ VPWR VPWR sky130_fd_sc_hd__diode_2
XFILLER_1_131 VGND VGND VPWR VPWR sky130_fd_sc_hd__decap_12
XFILLER_13_74 VGND VGND VPWR VPWR sky130_fd_sc_hd__decap_12
XFILLER_55_3 VGND VGND VPWR VPWR sky130_fd_sc_hd__decap_12
XFILLER_49_135 VGND VGND VPWR VPWR sky130_fd_sc_hd__decap_8
XFILLER_38_93 VGND VGND VPWR VPWR sky130_fd_sc_hd__decap_12
XFILLER_59_59 VGND VGND VPWR VPWR sky130_fd_sc_hd__fill_2
XFILLER_59_15 VGND VGND VPWR VPWR sky130_fd_sc_hd__decap_12
XFILLER_46_105 VGND VGND VPWR VPWR sky130_fd_sc_hd__decap_12
XFILLER_1_8 VGND VGND VPWR VPWR sky130_fd_sc_hd__fill_2
X_22_ chany_top_in[18] chany_bottom_out[18] VGND VGND VPWR VPWR sky130_fd_sc_hd__buf_2
XFILLER_60_141 VGND VGND VPWR VPWR sky130_fd_sc_hd__decap_4
XFILLER_45_39 VGND VGND VPWR VPWR sky130_fd_sc_hd__decap_12
XFILLER_28_105 VGND VGND VPWR VPWR sky130_fd_sc_hd__decap_12
XFILLER_61_27 VGND VGND VPWR VPWR sky130_fd_sc_hd__decap_12
XFILLER_42_141 VGND VGND VPWR VPWR sky130_fd_sc_hd__decap_4
XFILLER_19_62 VGND VGND VPWR VPWR sky130_fd_sc_hd__decap_12
XFILLER_18_3 VGND VGND VPWR VPWR sky130_fd_sc_hd__decap_12