* NGSPICE file created from cby_0__1_.ext - technology: EFS8A

* Black-box entry subcircuit for scs8hd_fill_2 abstract view
.subckt scs8hd_fill_2 vpwr vgnd
.ends

* Black-box entry subcircuit for scs8hd_decap_4 abstract view
.subckt scs8hd_decap_4 vgnd vpwr
.ends

* Black-box entry subcircuit for scs8hd_fill_1 abstract view
.subckt scs8hd_fill_1 vgnd vpwr
.ends

* Black-box entry subcircuit for scs8hd_diode_2 abstract view
.subckt scs8hd_diode_2 DIODE vgnd vpwr
.ends

* Black-box entry subcircuit for scs8hd_inv_1 abstract view
.subckt scs8hd_inv_1 A Y vgnd vpwr
.ends

* Black-box entry subcircuit for scs8hd_decap_6 abstract view
.subckt scs8hd_decap_6 vgnd vpwr
.ends

* Black-box entry subcircuit for scs8hd_ebufn_2 abstract view
.subckt scs8hd_ebufn_2 A TEB Z vgnd vpwr
.ends

* Black-box entry subcircuit for scs8hd_or3_4 abstract view
.subckt scs8hd_or3_4 A B C X vgnd vpwr
.ends

* Black-box entry subcircuit for scs8hd_conb_1 abstract view
.subckt scs8hd_conb_1 HI LO vgnd vpwr
.ends

* Black-box entry subcircuit for scs8hd_decap_3 abstract view
.subckt scs8hd_decap_3 vgnd vpwr
.ends

* Black-box entry subcircuit for scs8hd_nor2_4 abstract view
.subckt scs8hd_nor2_4 A B Y vgnd vpwr
.ends

* Black-box entry subcircuit for scs8hd_lpflow_inputisolatch_1 abstract view
.subckt scs8hd_lpflow_inputisolatch_1 D Q SLEEPB vgnd vpwr
.ends

* Black-box entry subcircuit for scs8hd_decap_8 abstract view
.subckt scs8hd_decap_8 vgnd vpwr
.ends

* Black-box entry subcircuit for scs8hd_decap_12 abstract view
.subckt scs8hd_decap_12 vgnd vpwr
.ends

* Black-box entry subcircuit for scs8hd_tapvpwrvgnd_1 abstract view
.subckt scs8hd_tapvpwrvgnd_1 vgnd vpwr
.ends

* Black-box entry subcircuit for scs8hd_inv_8 abstract view
.subckt scs8hd_inv_8 A Y vgnd vpwr
.ends

* Black-box entry subcircuit for scs8hd_nor3_4 abstract view
.subckt scs8hd_nor3_4 A B C Y vgnd vpwr
.ends

* Black-box entry subcircuit for scs8hd_buf_2 abstract view
.subckt scs8hd_buf_2 A X vgnd vpwr
.ends

* Black-box entry subcircuit for scs8hd_or4_4 abstract view
.subckt scs8hd_or4_4 A B C D X vgnd vpwr
.ends

* Black-box entry subcircuit for scs8hd_or2_4 abstract view
.subckt scs8hd_or2_4 A B X vgnd vpwr
.ends

.subckt cby_0__1_ address[0] address[1] address[2] address[3] address[4] address[5]
+ address[6] chany_bottom_in[0] chany_bottom_in[1] chany_bottom_in[2] chany_bottom_in[3]
+ chany_bottom_in[4] chany_bottom_in[5] chany_bottom_in[6] chany_bottom_in[7] chany_bottom_in[8]
+ chany_bottom_out[0] chany_bottom_out[1] chany_bottom_out[2] chany_bottom_out[3]
+ chany_bottom_out[4] chany_bottom_out[5] chany_bottom_out[6] chany_bottom_out[7]
+ chany_bottom_out[8] chany_top_in[0] chany_top_in[1] chany_top_in[2] chany_top_in[3]
+ chany_top_in[4] chany_top_in[5] chany_top_in[6] chany_top_in[7] chany_top_in[8]
+ chany_top_out[0] chany_top_out[1] chany_top_out[2] chany_top_out[3] chany_top_out[4]
+ chany_top_out[5] chany_top_out[6] chany_top_out[7] chany_top_out[8] data_in enable
+ left_grid_pin_0_ left_grid_pin_10_ left_grid_pin_12_ left_grid_pin_14_ left_grid_pin_2_
+ left_grid_pin_4_ left_grid_pin_6_ left_grid_pin_8_ right_grid_pin_3_ right_grid_pin_7_
+ vpwr vgnd
XFILLER_22_100 vpwr vgnd scs8hd_fill_2
XFILLER_22_166 vgnd vpwr scs8hd_decap_4
XFILLER_7_7 vgnd vpwr scs8hd_fill_1
XFILLER_13_133 vpwr vgnd scs8hd_fill_2
XFILLER_9_148 vpwr vgnd scs8hd_fill_2
XFILLER_3_23 vpwr vgnd scs8hd_fill_2
XANTENNA__113__B address[6] vgnd vpwr scs8hd_diode_2
Xmux_right_ipin_4.INVTX1_2_.scs8hd_inv_1 chany_bottom_in[5] mux_right_ipin_4.INVTX1_2_.scs8hd_inv_1/Y
+ vgnd vpwr scs8hd_inv_1
XANTENNA_mux_right_ipin_6.mux_l2_in_0_.TGATE_1_.scs8hd_ebufn_2_TEB mem_right_ipin_6.LATCH_4_.latch/Q
+ vgnd vpwr scs8hd_diode_2
XFILLER_6_129 vpwr vgnd scs8hd_fill_2
XFILLER_10_125 vpwr vgnd scs8hd_fill_2
XFILLER_10_147 vgnd vpwr scs8hd_decap_6
XFILLER_10_158 vgnd vpwr scs8hd_fill_1
XFILLER_12_32 vgnd vpwr scs8hd_fill_1
XFILLER_12_76 vpwr vgnd scs8hd_fill_2
Xmux_right_ipin_0.mux_l1_in_0_.TGATE_2_.scs8hd_ebufn_2 mux_right_ipin_0.INVTX1_2_.scs8hd_inv_1/Y
+ mem_right_ipin_0.LATCH_2_.latch/Q mux_right_ipin_0.mux_l1_in_0_.TGATE_2_.scs8hd_ebufn_2/Z
+ vgnd vpwr scs8hd_ebufn_2
XANTENNA_mem_left_ipin_0.LATCH_1_.latch_SLEEPB _122_/Y vgnd vpwr scs8hd_diode_2
XANTENNA_mux_left_ipin_0.mux_l2_in_0_.TGATE_0_.scs8hd_ebufn_2_TEB mem_left_ipin_0.LATCH_3_.latch/Q
+ vgnd vpwr scs8hd_diode_2
XANTENNA_mem_right_ipin_6.LATCH_3_.latch_SLEEPB _088_/Y vgnd vpwr scs8hd_diode_2
XFILLER_15_206 vgnd vpwr scs8hd_decap_6
XANTENNA_mux_right_ipin_1.mux_l2_in_0_.TGATE_1_.scs8hd_ebufn_2_TEB mem_right_ipin_1.LATCH_4_.latch/Q
+ vgnd vpwr scs8hd_diode_2
X_062_ _104_/Y address[6] _062_/C _064_/A vgnd vpwr scs8hd_or3_4
X_131_ _131_/HI _131_/LO vgnd vpwr scs8hd_conb_1
XFILLER_23_53 vpwr vgnd scs8hd_fill_2
XFILLER_23_75 vpwr vgnd scs8hd_fill_2
XFILLER_2_154 vpwr vgnd scs8hd_fill_2
XFILLER_2_121 vgnd vpwr scs8hd_decap_3
XANTENNA__119__A _117_/A vgnd vpwr scs8hd_diode_2
Xmux_right_ipin_7.mux_l1_in_1_.TGATE_0_.scs8hd_ebufn_2 mux_right_ipin_7.INVTX1_3_.scs8hd_inv_1/Y
+ mem_right_ipin_7.LATCH_0_.latch/Q mux_right_ipin_7.mux_l1_in_1_.TGATE_2_.scs8hd_ebufn_2/Z
+ vgnd vpwr scs8hd_ebufn_2
X_045_ _052_/A _045_/B _045_/Y vgnd vpwr scs8hd_nor2_4
X_114_ _049_/A _114_/B _114_/Y vgnd vpwr scs8hd_nor2_4
XANTENNA__121__B address[2] vgnd vpwr scs8hd_diode_2
Xmem_right_ipin_2.LATCH_1_.latch data_in mem_right_ipin_2.LATCH_1_.latch/Q _060_/Y
+ vgnd vpwr scs8hd_lpflow_inputisolatch_1
XANTENNA_mux_right_ipin_2.mux_l1_in_1_.TGATE_2_.scs8hd_ebufn_2_A mux_right_ipin_2.INVTX1_5_.scs8hd_inv_1/Y
+ vgnd vpwr scs8hd_diode_2
XFILLER_20_32 vgnd vpwr scs8hd_decap_8
XFILLER_6_23 vgnd vpwr scs8hd_decap_4
XANTENNA__116__B _050_/A vgnd vpwr scs8hd_diode_2
XANTENNA__042__A _049_/A vgnd vpwr scs8hd_diode_2
XFILLER_1_208 vgnd vpwr scs8hd_decap_4
Xmem_right_ipin_4.LATCH_4_.latch data_in mem_right_ipin_4.LATCH_4_.latch/Q _073_/Y
+ vgnd vpwr scs8hd_lpflow_inputisolatch_1
XFILLER_25_175 vpwr vgnd scs8hd_fill_2
XFILLER_25_153 vpwr vgnd scs8hd_fill_2
XFILLER_25_142 vpwr vgnd scs8hd_fill_2
XANTENNA_mux_right_ipin_2.INVTX1_5_.scs8hd_inv_1_A chany_top_in[8] vgnd vpwr scs8hd_diode_2
XANTENNA_mem_right_ipin_4.LATCH_4_.latch_SLEEPB _073_/Y vgnd vpwr scs8hd_diode_2
XFILLER_31_75 vgnd vpwr scs8hd_decap_12
XFILLER_31_178 vpwr vgnd scs8hd_fill_2
XANTENNA_mux_right_ipin_3.mux_l2_in_0_.TGATE_0_.scs8hd_ebufn_2_TEB mem_right_ipin_3.LATCH_3_.latch/Q
+ vgnd vpwr scs8hd_diode_2
XFILLER_9_116 vgnd vpwr scs8hd_decap_6
XFILLER_13_123 vpwr vgnd scs8hd_fill_2
XFILLER_13_156 vgnd vpwr scs8hd_decap_4
XANTENNA_mux_left_ipin_0.mux_l1_in_1_.TGATE_0_.scs8hd_ebufn_2_A mux_left_ipin_0.INVTX1_3_.scs8hd_inv_1/Y
+ vgnd vpwr scs8hd_diode_2
XFILLER_3_57 vpwr vgnd scs8hd_fill_2
XANTENNA__113__C _085_/C vgnd vpwr scs8hd_diode_2
XFILLER_8_171 vpwr vgnd scs8hd_fill_2
XFILLER_27_204 vpwr vgnd scs8hd_fill_2
XANTENNA_mux_right_ipin_3.mux_l2_in_0_.TGATE_2_.scs8hd_ebufn_2_A _129_/HI vgnd vpwr
+ scs8hd_diode_2
XFILLER_5_174 vgnd vpwr scs8hd_decap_4
XANTENNA__140__A chany_top_in[2] vgnd vpwr scs8hd_diode_2
XANTENNA__050__A _050_/A vgnd vpwr scs8hd_diode_2
Xmux_right_ipin_2.INVTX1_2_.scs8hd_inv_1 chany_bottom_in[4] mux_right_ipin_2.INVTX1_2_.scs8hd_inv_1/Y
+ vgnd vpwr scs8hd_inv_1
X_130_ _130_/HI _130_/LO vgnd vpwr scs8hd_conb_1
XFILLER_2_111 vgnd vpwr scs8hd_fill_1
X_061_ _054_/A _059_/B _061_/Y vgnd vpwr scs8hd_nor2_4
XFILLER_2_188 vpwr vgnd scs8hd_fill_2
XANTENNA__119__B address[2] vgnd vpwr scs8hd_diode_2
XANTENNA_mem_right_ipin_2.LATCH_5_.latch_SLEEPB _056_/Y vgnd vpwr scs8hd_diode_2
XFILLER_9_23 vpwr vgnd scs8hd_fill_2
XFILLER_9_78 vpwr vgnd scs8hd_fill_2
XANTENNA__135__A chany_top_in[7] vgnd vpwr scs8hd_diode_2
XANTENNA__045__A _052_/A vgnd vpwr scs8hd_diode_2
XANTENNA_mem_right_ipin_0.LATCH_5_.latch_D data_in vgnd vpwr scs8hd_diode_2
Xmux_left_ipin_1.mux_l2_in_0_.TGATE_0_.scs8hd_ebufn_2 mux_left_ipin_1.mux_l1_in_0_.TGATE_0_.scs8hd_ebufn_2/Z
+ _109_/A mux_left_ipin_1.tap_buf4_0_.scs8hd_inv_1/A vgnd vpwr scs8hd_ebufn_2
XFILLER_18_32 vgnd vpwr scs8hd_decap_6
XFILLER_18_87 vgnd vpwr scs8hd_decap_4
X_113_ address[5] address[6] _085_/C _114_/B vgnd vpwr scs8hd_or3_4
XFILLER_11_210 vpwr vgnd scs8hd_fill_2
XANTENNA_mem_right_ipin_1.LATCH_3_.latch_D data_in vgnd vpwr scs8hd_diode_2
X_044_ _051_/A _045_/B _044_/Y vgnd vpwr scs8hd_nor2_4
XANTENNA__121__C _117_/C vgnd vpwr scs8hd_diode_2
XANTENNA_mem_right_ipin_2.LATCH_1_.latch_D data_in vgnd vpwr scs8hd_diode_2
Xmem_right_ipin_5.LATCH_0_.latch data_in mem_right_ipin_5.LATCH_0_.latch/Q _084_/Y
+ vgnd vpwr scs8hd_lpflow_inputisolatch_1
XANTENNA_mux_left_ipin_1.mux_l2_in_0_.TGATE_0_.scs8hd_ebufn_2_A mux_left_ipin_1.mux_l1_in_0_.TGATE_0_.scs8hd_ebufn_2/Z
+ vgnd vpwr scs8hd_diode_2
XFILLER_29_118 vpwr vgnd scs8hd_fill_2
XANTENNA_mux_right_ipin_0.INVTX1_2_.scs8hd_inv_1_A chany_bottom_in[2] vgnd vpwr scs8hd_diode_2
XFILLER_20_66 vpwr vgnd scs8hd_fill_2
XFILLER_20_99 vgnd vpwr scs8hd_fill_1
Xmem_right_ipin_7.LATCH_3_.latch data_in mem_right_ipin_7.LATCH_3_.latch/Q _095_/Y
+ vgnd vpwr scs8hd_lpflow_inputisolatch_1
XANTENNA_mux_right_ipin_6.mux_l1_in_0_.TGATE_1_.scs8hd_ebufn_2_A mux_right_ipin_6.INVTX1_1_.scs8hd_inv_1/Y
+ vgnd vpwr scs8hd_diode_2
XANTENNA_mux_right_ipin_4.INVTX1_3_.scs8hd_inv_1_A chany_top_in[5] vgnd vpwr scs8hd_diode_2
XFILLER_19_184 vgnd vpwr scs8hd_decap_3
XANTENNA__042__B _045_/B vgnd vpwr scs8hd_diode_2
XFILLER_15_66 vgnd vpwr scs8hd_fill_1
XFILLER_31_32 vgnd vpwr scs8hd_decap_12
XFILLER_31_87 vgnd vpwr scs8hd_decap_6
XPHY_160 vgnd vpwr scs8hd_tapvpwrvgnd_1
XFILLER_16_154 vgnd vpwr scs8hd_decap_3
XFILLER_16_187 vgnd vpwr scs8hd_decap_3
XANTENNA__143__A chany_bottom_in[8] vgnd vpwr scs8hd_diode_2
XANTENNA_mem_right_ipin_5.LATCH_5_.latch_D data_in vgnd vpwr scs8hd_diode_2
XFILLER_22_146 vgnd vpwr scs8hd_decap_4
XANTENNA__053__A _053_/A vgnd vpwr scs8hd_diode_2
XANTENNA_mem_left_ipin_0.LATCH_2_.latch_D data_in vgnd vpwr scs8hd_diode_2
XFILLER_26_32 vgnd vpwr scs8hd_decap_12
XANTENNA_mem_left_ipin_1.LATCH_0_.latch_D data_in vgnd vpwr scs8hd_diode_2
XFILLER_13_113 vpwr vgnd scs8hd_fill_2
XFILLER_13_179 vpwr vgnd scs8hd_fill_2
XANTENNA_mem_right_ipin_6.LATCH_3_.latch_D data_in vgnd vpwr scs8hd_diode_2
XFILLER_3_36 vpwr vgnd scs8hd_fill_2
XANTENNA_mem_right_ipin_7.LATCH_1_.latch_D data_in vgnd vpwr scs8hd_diode_2
XANTENNA__138__A chany_top_in[4] vgnd vpwr scs8hd_diode_2
XANTENNA__048__A _078_/A vgnd vpwr scs8hd_diode_2
Xmux_right_ipin_6.mux_l1_in_1_.TGATE_0_.scs8hd_ebufn_2 mux_right_ipin_6.INVTX1_3_.scs8hd_inv_1/Y
+ mem_right_ipin_6.LATCH_0_.latch/Q mux_right_ipin_6.mux_l2_in_0_.TGATE_1_.scs8hd_ebufn_2/A
+ vgnd vpwr scs8hd_ebufn_2
XFILLER_12_12 vgnd vpwr scs8hd_decap_6
XFILLER_12_23 vgnd vpwr scs8hd_decap_4
XFILLER_5_197 vpwr vgnd scs8hd_fill_2
XANTENNA_mux_right_ipin_0.tap_buf4_0_.scs8hd_inv_1_A mux_right_ipin_0.tap_buf4_0_.scs8hd_inv_1/A
+ vgnd vpwr scs8hd_diode_2
XANTENNA__050__B _051_/B vgnd vpwr scs8hd_diode_2
XFILLER_3_3 vgnd vpwr scs8hd_decap_4
XFILLER_2_145 vpwr vgnd scs8hd_fill_2
X_060_ _053_/A _059_/B _060_/Y vgnd vpwr scs8hd_nor2_4
XFILLER_2_167 vpwr vgnd scs8hd_fill_2
XANTENNA__119__C address[0] vgnd vpwr scs8hd_diode_2
XFILLER_0_37 vpwr vgnd scs8hd_fill_2
XFILLER_9_57 vpwr vgnd scs8hd_fill_2
XANTENNA__151__A chany_bottom_in[0] vgnd vpwr scs8hd_diode_2
XFILLER_20_211 vgnd vpwr scs8hd_fill_1
XANTENNA__045__B _045_/B vgnd vpwr scs8hd_diode_2
XANTENNA__061__A _054_/A vgnd vpwr scs8hd_diode_2
XFILLER_18_66 vpwr vgnd scs8hd_fill_2
X_112_ address[4] address[3] _062_/C _085_/C vgnd vpwr scs8hd_or3_4
X_043_ _050_/A _045_/B _043_/Y vgnd vpwr scs8hd_nor2_4
XFILLER_7_204 vpwr vgnd scs8hd_fill_2
Xmux_right_ipin_0.INVTX1_2_.scs8hd_inv_1 chany_bottom_in[2] mux_right_ipin_0.INVTX1_2_.scs8hd_inv_1/Y
+ vgnd vpwr scs8hd_inv_1
XANTENNA_mux_right_ipin_2.INVTX1_0_.scs8hd_inv_1_A chany_bottom_in[3] vgnd vpwr scs8hd_diode_2
XFILLER_15_8 vpwr vgnd scs8hd_fill_2
Xmux_left_ipin_1.tap_buf4_0_.scs8hd_inv_1 mux_left_ipin_1.tap_buf4_0_.scs8hd_inv_1/A
+ right_grid_pin_7_ vgnd vpwr scs8hd_inv_1
XANTENNA__146__A chany_bottom_in[5] vgnd vpwr scs8hd_diode_2
XFILLER_29_108 vgnd vpwr scs8hd_decap_8
XANTENNA__056__A _049_/A vgnd vpwr scs8hd_diode_2
XANTENNA_mux_right_ipin_6.INVTX1_1_.scs8hd_inv_1_A chany_top_in[3] vgnd vpwr scs8hd_diode_2
XANTENNA_mux_right_ipin_3.mux_l1_in_1_.TGATE_2_.scs8hd_ebufn_2_A mux_right_ipin_3.INVTX1_5_.scs8hd_inv_1/Y
+ vgnd vpwr scs8hd_diode_2
XFILLER_20_23 vgnd vpwr scs8hd_decap_8
XFILLER_28_163 vpwr vgnd scs8hd_fill_2
XANTENNA_mem_right_ipin_7.LATCH_5_.latch_SLEEPB _093_/Y vgnd vpwr scs8hd_diode_2
XFILLER_19_141 vpwr vgnd scs8hd_fill_2
XFILLER_19_174 vgnd vpwr scs8hd_decap_6
XFILLER_15_12 vpwr vgnd scs8hd_fill_2
XFILLER_15_23 vpwr vgnd scs8hd_fill_2
XANTENNA_mem_right_ipin_1.LATCH_0_.latch_SLEEPB _054_/Y vgnd vpwr scs8hd_diode_2
XFILLER_31_44 vgnd vpwr scs8hd_decap_12
Xmux_left_ipin_0.INVTX1_1_.scs8hd_inv_1 chany_top_in[0] mux_left_ipin_0.INVTX1_1_.scs8hd_inv_1/Y
+ vgnd vpwr scs8hd_inv_1
XFILLER_16_122 vpwr vgnd scs8hd_fill_2
XANTENNA_mux_right_ipin_6.mux_l1_in_0_.TGATE_2_.scs8hd_ebufn_2_TEB mem_right_ipin_6.LATCH_2_.latch/Q
+ vgnd vpwr scs8hd_diode_2
XFILLER_31_147 vpwr vgnd scs8hd_fill_2
XFILLER_31_136 vpwr vgnd scs8hd_fill_2
XFILLER_31_125 vgnd vpwr scs8hd_decap_8
XPHY_161 vgnd vpwr scs8hd_tapvpwrvgnd_1
XPHY_150 vgnd vpwr scs8hd_tapvpwrvgnd_1
Xmux_right_ipin_7.INVTX1_3_.scs8hd_inv_1 chany_top_in[4] mux_right_ipin_7.INVTX1_3_.scs8hd_inv_1/Y
+ vgnd vpwr scs8hd_inv_1
XFILLER_22_125 vpwr vgnd scs8hd_fill_2
XANTENNA__053__B _051_/B vgnd vpwr scs8hd_diode_2
XFILLER_26_44 vgnd vpwr scs8hd_decap_12
XFILLER_9_129 vpwr vgnd scs8hd_fill_2
Xmem_right_ipin_0.LATCH_4_.latch data_in mem_right_ipin_0.LATCH_4_.latch/Q _043_/Y
+ vgnd vpwr scs8hd_lpflow_inputisolatch_1
XANTENNA_mux_left_ipin_0.mux_l1_in_0_.TGATE_1_.scs8hd_ebufn_2_TEB mem_left_ipin_0.LATCH_1_.latch/Q
+ vgnd vpwr scs8hd_diode_2
XANTENNA_mux_right_ipin_1.mux_l1_in_0_.TGATE_2_.scs8hd_ebufn_2_TEB mem_right_ipin_1.LATCH_2_.latch/Q
+ vgnd vpwr scs8hd_diode_2
Xmux_left_ipin_0.mux_l2_in_0_.TGATE_0_.scs8hd_ebufn_2 mux_left_ipin_0.mux_l2_in_0_.TGATE_0_.scs8hd_ebufn_2/A
+ mem_left_ipin_0.LATCH_3_.latch/Q mux_left_ipin_0.tap_buf4_0_.scs8hd_inv_1/A vgnd
+ vpwr scs8hd_ebufn_2
XANTENNA__048__B _078_/B vgnd vpwr scs8hd_diode_2
XFILLER_10_117 vgnd vpwr scs8hd_decap_6
XANTENNA__064__A _064_/A vgnd vpwr scs8hd_diode_2
XFILLER_12_57 vpwr vgnd scs8hd_fill_2
XFILLER_5_132 vpwr vgnd scs8hd_fill_2
XANTENNA_mux_right_ipin_4.mux_l2_in_0_.TGATE_2_.scs8hd_ebufn_2_A _130_/HI vgnd vpwr
+ scs8hd_diode_2
XANTENNA__149__A chany_bottom_in[2] vgnd vpwr scs8hd_diode_2
XANTENNA__059__A _052_/A vgnd vpwr scs8hd_diode_2
XFILLER_23_89 vgnd vpwr scs8hd_decap_4
XFILLER_2_102 vgnd vpwr scs8hd_decap_3
XANTENNA_mux_right_ipin_4.mux_l1_in_1_.TGATE_2_.scs8hd_ebufn_2_TEB mem_right_ipin_4.LATCH_2_.latch/Q
+ vgnd vpwr scs8hd_diode_2
XFILLER_0_27 vpwr vgnd scs8hd_fill_2
XANTENNA_mux_right_ipin_0.mux_l1_in_0_.TGATE_2_.scs8hd_ebufn_2_A mux_right_ipin_0.INVTX1_2_.scs8hd_inv_1/Y
+ vgnd vpwr scs8hd_diode_2
XFILLER_9_36 vpwr vgnd scs8hd_fill_2
XANTENNA__061__B _059_/B vgnd vpwr scs8hd_diode_2
XFILLER_18_12 vgnd vpwr scs8hd_decap_8
XFILLER_18_23 vgnd vpwr scs8hd_decap_4
X_111_ address[1] _102_/Y _117_/C _049_/A vgnd vpwr scs8hd_or3_4
X_042_ _049_/A _045_/B _042_/Y vgnd vpwr scs8hd_nor2_4
XFILLER_1_92 vpwr vgnd scs8hd_fill_2
XANTENNA__072__A _049_/A vgnd vpwr scs8hd_diode_2
XANTENNA__056__B _059_/B vgnd vpwr scs8hd_diode_2
XFILLER_29_11 vgnd vpwr scs8hd_decap_12
XFILLER_28_197 vgnd vpwr scs8hd_decap_12
XFILLER_28_186 vpwr vgnd scs8hd_fill_2
XFILLER_28_120 vgnd vpwr scs8hd_decap_3
XANTENNA_mux_right_ipin_0.mux_l2_in_0_.TGATE_0_.scs8hd_ebufn_2_A mux_right_ipin_0.mux_l1_in_0_.TGATE_2_.scs8hd_ebufn_2/Z
+ vgnd vpwr scs8hd_diode_2
XFILLER_6_48 vpwr vgnd scs8hd_fill_2
XANTENNA_mux_right_ipin_7.mux_l1_in_0_.TGATE_1_.scs8hd_ebufn_2_A mux_right_ipin_7.INVTX1_1_.scs8hd_inv_1/Y
+ vgnd vpwr scs8hd_diode_2
XFILLER_10_90 vpwr vgnd scs8hd_fill_2
Xmux_right_ipin_5.mux_l1_in_1_.TGATE_0_.scs8hd_ebufn_2 mux_right_ipin_5.INVTX1_3_.scs8hd_inv_1/Y
+ mem_right_ipin_5.LATCH_0_.latch/Q mux_right_ipin_5.mux_l1_in_1_.TGATE_1_.scs8hd_ebufn_2/Z
+ vgnd vpwr scs8hd_ebufn_2
XANTENNA_mux_right_ipin_3.mux_l1_in_0_.TGATE_1_.scs8hd_ebufn_2_TEB mem_right_ipin_3.LATCH_1_.latch/Q
+ vgnd vpwr scs8hd_diode_2
Xmem_right_ipin_1.LATCH_0_.latch data_in mem_right_ipin_1.LATCH_0_.latch/Q _054_/Y
+ vgnd vpwr scs8hd_lpflow_inputisolatch_1
XFILLER_25_123 vpwr vgnd scs8hd_fill_2
XANTENNA__067__A _051_/A vgnd vpwr scs8hd_diode_2
XFILLER_15_57 vpwr vgnd scs8hd_fill_2
XFILLER_31_56 vgnd vpwr scs8hd_decap_6
XFILLER_16_112 vgnd vpwr scs8hd_fill_1
XFILLER_16_145 vgnd vpwr scs8hd_decap_4
XFILLER_31_159 vpwr vgnd scs8hd_fill_2
XPHY_162 vgnd vpwr scs8hd_tapvpwrvgnd_1
XPHY_151 vgnd vpwr scs8hd_tapvpwrvgnd_1
XPHY_140 vgnd vpwr scs8hd_tapvpwrvgnd_1
XFILLER_11_3 vgnd vpwr scs8hd_decap_4
Xmux_left_ipin_0.mux_l1_in_1_.TGATE_1_.scs8hd_ebufn_2 mux_left_ipin_0.INVTX1_4_.scs8hd_inv_1/Y
+ mem_left_ipin_0.LATCH_1_.latch/Q mux_left_ipin_0.mux_l2_in_0_.TGATE_1_.scs8hd_ebufn_2/A
+ vgnd vpwr scs8hd_ebufn_2
XFILLER_22_104 vpwr vgnd scs8hd_fill_2
Xmem_right_ipin_3.LATCH_3_.latch data_in mem_right_ipin_3.LATCH_3_.latch/Q _067_/Y
+ vgnd vpwr scs8hd_lpflow_inputisolatch_1
XFILLER_26_56 vgnd vpwr scs8hd_decap_12
XANTENNA_mux_right_ipin_6.mux_l1_in_1_.TGATE_1_.scs8hd_ebufn_2_TEB mem_right_ipin_6.LATCH_1_.latch/Q
+ vgnd vpwr scs8hd_diode_2
XFILLER_9_108 vpwr vgnd scs8hd_fill_2
XFILLER_13_148 vgnd vpwr scs8hd_decap_6
XFILLER_8_130 vpwr vgnd scs8hd_fill_2
XANTENNA__048__C _048_/C vgnd vpwr scs8hd_diode_2
XFILLER_10_129 vgnd vpwr scs8hd_decap_3
XANTENNA__064__B _064_/B vgnd vpwr scs8hd_diode_2
XFILLER_12_36 vpwr vgnd scs8hd_fill_2
XFILLER_5_8 vpwr vgnd scs8hd_fill_2
XANTENNA__080__A _050_/A vgnd vpwr scs8hd_diode_2
Xmux_right_ipin_5.INVTX1_3_.scs8hd_inv_1 chany_top_in[6] mux_right_ipin_5.INVTX1_3_.scs8hd_inv_1/Y
+ vgnd vpwr scs8hd_inv_1
XANTENNA_mux_left_ipin_0.mux_l1_in_1_.TGATE_0_.scs8hd_ebufn_2_TEB mem_left_ipin_0.LATCH_0_.latch/Q
+ vgnd vpwr scs8hd_diode_2
XANTENNA_mem_right_ipin_6.LATCH_0_.latch_SLEEPB _091_/Y vgnd vpwr scs8hd_diode_2
XFILLER_5_155 vpwr vgnd scs8hd_fill_2
XANTENNA_mux_right_ipin_1.mux_l1_in_1_.TGATE_1_.scs8hd_ebufn_2_TEB mem_right_ipin_1.LATCH_1_.latch/Q
+ vgnd vpwr scs8hd_diode_2
XANTENNA__059__B _059_/B vgnd vpwr scs8hd_diode_2
XANTENNA__075__A _052_/A vgnd vpwr scs8hd_diode_2
XFILLER_23_57 vpwr vgnd scs8hd_fill_2
XFILLER_23_79 vgnd vpwr scs8hd_fill_1
XFILLER_13_90 vgnd vpwr scs8hd_decap_3
XANTENNA_mux_right_ipin_5.mux_l1_in_0_.TGATE_0_.scs8hd_ebufn_2_TEB mem_right_ipin_5.LATCH_0_.latch/Q
+ vgnd vpwr scs8hd_diode_2
XANTENNA_mux_right_ipin_5.tap_buf4_0_.scs8hd_inv_1_A mux_right_ipin_5.tap_buf4_0_.scs8hd_inv_1/A
+ vgnd vpwr scs8hd_diode_2
Xmem_left_ipin_0.LATCH_4_.latch data_in mem_left_ipin_0.LATCH_4_.latch/Q _116_/Y vgnd
+ vpwr scs8hd_lpflow_inputisolatch_1
X_110_ _110_/A _110_/Y vgnd vpwr scs8hd_inv_8
XFILLER_11_202 vgnd vpwr scs8hd_decap_8
X_041_ _078_/A address[3] _048_/C _045_/B vgnd vpwr scs8hd_or3_4
XFILLER_1_60 vgnd vpwr scs8hd_fill_1
XANTENNA__072__B _075_/B vgnd vpwr scs8hd_diode_2
XANTENNA_mux_right_ipin_1.INVTX1_4_.scs8hd_inv_1_A chany_bottom_in[7] vgnd vpwr scs8hd_diode_2
XFILLER_29_78 vpwr vgnd scs8hd_fill_2
XFILLER_29_23 vgnd vpwr scs8hd_decap_12
XANTENNA_mux_right_ipin_4.mux_l1_in_1_.TGATE_2_.scs8hd_ebufn_2_A mux_right_ipin_4.INVTX1_5_.scs8hd_inv_1/Y
+ vgnd vpwr scs8hd_diode_2
XANTENNA_mux_right_ipin_0.mux_l1_in_0_.TGATE_0_.scs8hd_ebufn_2_TEB mem_right_ipin_0.LATCH_0_.latch/Q
+ vgnd vpwr scs8hd_diode_2
XANTENNA_mem_right_ipin_4.LATCH_1_.latch_SLEEPB _076_/Y vgnd vpwr scs8hd_diode_2
XANTENNA_mux_right_ipin_5.INVTX1_5_.scs8hd_inv_1_A chany_top_in[7] vgnd vpwr scs8hd_diode_2
XFILLER_13_7 vpwr vgnd scs8hd_fill_2
XFILLER_19_154 vpwr vgnd scs8hd_fill_2
XFILLER_19_198 vgnd vpwr scs8hd_decap_12
XFILLER_25_157 vpwr vgnd scs8hd_fill_2
XFILLER_25_146 vpwr vgnd scs8hd_fill_2
XANTENNA__083__A _053_/A vgnd vpwr scs8hd_diode_2
XANTENNA__067__B _065_/B vgnd vpwr scs8hd_diode_2
XFILLER_25_179 vpwr vgnd scs8hd_fill_2
XFILLER_15_36 vpwr vgnd scs8hd_fill_2
XFILLER_15_69 vgnd vpwr scs8hd_decap_3
Xmem_right_ipin_6.LATCH_2_.latch data_in mem_right_ipin_6.LATCH_2_.latch/Q _089_/Y
+ vgnd vpwr scs8hd_lpflow_inputisolatch_1
XPHY_152 vgnd vpwr scs8hd_tapvpwrvgnd_1
XPHY_141 vgnd vpwr scs8hd_tapvpwrvgnd_1
XANTENNA_mux_right_ipin_3.mux_l1_in_1_.TGATE_0_.scs8hd_ebufn_2_TEB mem_right_ipin_3.LATCH_0_.latch/Q
+ vgnd vpwr scs8hd_diode_2
XFILLER_16_168 vpwr vgnd scs8hd_fill_2
XPHY_130 vgnd vpwr scs8hd_tapvpwrvgnd_1
XPHY_163 vgnd vpwr scs8hd_tapvpwrvgnd_1
XFILLER_30_182 vgnd vpwr scs8hd_decap_8
XFILLER_30_193 vgnd vpwr scs8hd_decap_8
XFILLER_26_68 vgnd vpwr scs8hd_decap_4
XANTENNA__078__A _078_/A vgnd vpwr scs8hd_diode_2
XFILLER_21_160 vpwr vgnd scs8hd_fill_2
XFILLER_21_193 vpwr vgnd scs8hd_fill_2
XFILLER_12_160 vpwr vgnd scs8hd_fill_2
XFILLER_8_175 vpwr vgnd scs8hd_fill_2
XFILLER_27_208 vgnd vpwr scs8hd_decap_4
XANTENNA_mux_right_ipin_0.mux_l1_in_1_.TGATE_0_.scs8hd_ebufn_2_A mux_right_ipin_0.INVTX1_3_.scs8hd_inv_1/Y
+ vgnd vpwr scs8hd_diode_2
XANTENNA__080__B _083_/B vgnd vpwr scs8hd_diode_2
XFILLER_5_101 vpwr vgnd scs8hd_fill_2
Xmem_left_ipin_1.LATCH_0_.latch data_in _110_/A _100_/Y vgnd vpwr scs8hd_lpflow_inputisolatch_1
XANTENNA_mux_right_ipin_5.mux_l2_in_0_.TGATE_2_.scs8hd_ebufn_2_A _131_/HI vgnd vpwr
+ scs8hd_diode_2
XANTENNA_mem_right_ipin_2.LATCH_4_.latch_D data_in vgnd vpwr scs8hd_diode_2
XANTENNA_mem_right_ipin_3.LATCH_2_.latch_D data_in vgnd vpwr scs8hd_diode_2
XFILLER_4_71 vpwr vgnd scs8hd_fill_2
XANTENNA_mem_right_ipin_2.LATCH_2_.latch_SLEEPB _059_/Y vgnd vpwr scs8hd_diode_2
XANTENNA__075__B _075_/B vgnd vpwr scs8hd_diode_2
XFILLER_23_211 vgnd vpwr scs8hd_fill_1
XANTENNA__091__A _054_/A vgnd vpwr scs8hd_diode_2
XANTENNA_mem_right_ipin_4.LATCH_0_.latch_D data_in vgnd vpwr scs8hd_diode_2
XANTENNA_mux_left_ipin_0.INVTX1_3_.scs8hd_inv_1_A chany_top_in[4] vgnd vpwr scs8hd_diode_2
XFILLER_23_47 vgnd vpwr scs8hd_decap_3
XFILLER_2_126 vgnd vpwr scs8hd_decap_4
Xmux_right_ipin_4.mux_l1_in_1_.TGATE_0_.scs8hd_ebufn_2 mux_right_ipin_4.INVTX1_3_.scs8hd_inv_1/Y
+ mem_right_ipin_4.LATCH_0_.latch/Q mux_right_ipin_4.mux_l1_in_1_.TGATE_1_.scs8hd_ebufn_2/Z
+ vgnd vpwr scs8hd_ebufn_2
XFILLER_14_200 vgnd vpwr scs8hd_decap_12
XANTENNA_mux_right_ipin_1.mux_l1_in_0_.TGATE_2_.scs8hd_ebufn_2_A mux_right_ipin_1.INVTX1_2_.scs8hd_inv_1/Y
+ vgnd vpwr scs8hd_diode_2
Xmux_right_ipin_3.INVTX1_3_.scs8hd_inv_1 chany_top_in[4] mux_right_ipin_3.INVTX1_3_.scs8hd_inv_1/Y
+ vgnd vpwr scs8hd_inv_1
XFILLER_18_47 vpwr vgnd scs8hd_fill_2
XANTENNA__086__A _049_/A vgnd vpwr scs8hd_diode_2
X_040_ address[5] address[6] _062_/C _048_/C vgnd vpwr scs8hd_or3_4
XFILLER_1_3 vgnd vpwr scs8hd_decap_4
XANTENNA_mux_right_ipin_3.INVTX1_2_.scs8hd_inv_1_A chany_bottom_in[4] vgnd vpwr scs8hd_diode_2
XANTENNA_mux_right_ipin_7.INVTX1_3_.scs8hd_inv_1_A chany_top_in[4] vgnd vpwr scs8hd_diode_2
XFILLER_20_15 vgnd vpwr scs8hd_decap_4
XANTENNA_mem_left_ipin_0.LATCH_5_.latch_D data_in vgnd vpwr scs8hd_diode_2
XFILLER_29_35 vgnd vpwr scs8hd_decap_12
XANTENNA_mux_right_ipin_1.mux_l2_in_0_.TGATE_0_.scs8hd_ebufn_2_A mux_right_ipin_1.mux_l1_in_0_.TGATE_2_.scs8hd_ebufn_2/Z
+ vgnd vpwr scs8hd_diode_2
XANTENNA_mem_right_ipin_7.LATCH_4_.latch_D data_in vgnd vpwr scs8hd_diode_2
XFILLER_25_114 vpwr vgnd scs8hd_fill_2
XANTENNA__083__B _083_/B vgnd vpwr scs8hd_diode_2
XANTENNA_mem_right_ipin_0.LATCH_3_.latch_SLEEPB _044_/Y vgnd vpwr scs8hd_diode_2
XPHY_164 vgnd vpwr scs8hd_tapvpwrvgnd_1
XFILLER_31_106 vgnd vpwr scs8hd_decap_12
XPHY_153 vgnd vpwr scs8hd_tapvpwrvgnd_1
XPHY_142 vgnd vpwr scs8hd_tapvpwrvgnd_1
XPHY_120 vgnd vpwr scs8hd_tapvpwrvgnd_1
XPHY_131 vgnd vpwr scs8hd_tapvpwrvgnd_1
XPHY_0 vgnd vpwr scs8hd_decap_3
XFILLER_22_117 vgnd vpwr scs8hd_decap_6
XFILLER_7_71 vgnd vpwr scs8hd_decap_4
XFILLER_7_93 vgnd vpwr scs8hd_decap_3
XANTENNA__078__B _078_/B vgnd vpwr scs8hd_diode_2
XANTENNA__094__A _050_/A vgnd vpwr scs8hd_diode_2
XFILLER_13_117 vgnd vpwr scs8hd_decap_3
XFILLER_8_154 vgnd vpwr scs8hd_decap_6
XFILLER_12_183 vgnd vpwr scs8hd_fill_1
XFILLER_16_80 vpwr vgnd scs8hd_fill_2
Xmux_left_ipin_1.mux_l1_in_0_.TGATE_0_.scs8hd_ebufn_2 mux_left_ipin_1.INVTX1_0_.scs8hd_inv_1/Y
+ _110_/A mux_left_ipin_1.mux_l1_in_0_.TGATE_0_.scs8hd_ebufn_2/Z vgnd vpwr scs8hd_ebufn_2
XANTENNA__089__A _052_/A vgnd vpwr scs8hd_diode_2
XFILLER_4_50 vpwr vgnd scs8hd_fill_2
XFILLER_23_15 vgnd vpwr scs8hd_decap_12
XFILLER_23_201 vpwr vgnd scs8hd_fill_2
XANTENNA__091__B _086_/B vgnd vpwr scs8hd_diode_2
XFILLER_3_7 vgnd vpwr scs8hd_fill_1
XFILLER_2_149 vpwr vgnd scs8hd_fill_2
XFILLER_1_193 vpwr vgnd scs8hd_fill_2
XFILLER_1_171 vpwr vgnd scs8hd_fill_2
XANTENNA_mux_right_ipin_5.INVTX1_0_.scs8hd_inv_1_A chany_bottom_in[2] vgnd vpwr scs8hd_diode_2
XANTENNA__086__B _086_/B vgnd vpwr scs8hd_diode_2
XFILLER_7_208 vgnd vpwr scs8hd_decap_4
XANTENNA_mux_right_ipin_6.mux_l2_in_0_.TGATE_2_.scs8hd_ebufn_2_TEB mem_right_ipin_6.LATCH_5_.latch/Q
+ vgnd vpwr scs8hd_diode_2
Xmux_right_ipin_7.mux_l2_in_0_.TGATE_0_.scs8hd_ebufn_2 mux_right_ipin_7.mux_l1_in_0_.TGATE_2_.scs8hd_ebufn_2/Z
+ mem_right_ipin_7.LATCH_3_.latch/Q mux_right_ipin_7.tap_buf4_0_.scs8hd_inv_1/A vgnd
+ vpwr scs8hd_ebufn_2
XFILLER_27_3 vgnd vpwr scs8hd_decap_12
X_099_ _048_/C _064_/B _117_/C _099_/Y vgnd vpwr scs8hd_nor3_4
XFILLER_1_40 vgnd vpwr scs8hd_fill_1
XFILLER_1_62 vgnd vpwr scs8hd_decap_3
XFILLER_1_73 vpwr vgnd scs8hd_fill_2
Xmux_right_ipin_1.INVTX1_3_.scs8hd_inv_1 chany_top_in[3] mux_right_ipin_1.INVTX1_3_.scs8hd_inv_1/Y
+ vgnd vpwr scs8hd_inv_1
XANTENNA_mem_left_ipin_1.LATCH_0_.latch_SLEEPB _100_/Y vgnd vpwr scs8hd_diode_2
XANTENNA_mem_right_ipin_7.LATCH_2_.latch_SLEEPB _096_/Y vgnd vpwr scs8hd_diode_2
XFILLER_20_49 vpwr vgnd scs8hd_fill_2
Xmux_right_ipin_1.tap_buf4_0_.scs8hd_inv_1 mux_right_ipin_1.tap_buf4_0_.scs8hd_inv_1/A
+ left_grid_pin_2_ vgnd vpwr scs8hd_inv_1
XFILLER_29_47 vgnd vpwr scs8hd_decap_12
XFILLER_28_145 vgnd vpwr scs8hd_decap_8
XFILLER_28_134 vgnd vpwr scs8hd_decap_8
XFILLER_28_167 vgnd vpwr scs8hd_decap_4
XANTENNA__097__A _053_/A vgnd vpwr scs8hd_diode_2
XANTENNA_mux_right_ipin_5.mux_l1_in_1_.TGATE_2_.scs8hd_ebufn_2_A mux_right_ipin_5.INVTX1_5_.scs8hd_inv_1/Y
+ vgnd vpwr scs8hd_diode_2
XFILLER_3_211 vgnd vpwr scs8hd_fill_1
XFILLER_6_29 vpwr vgnd scs8hd_fill_2
XFILLER_10_82 vpwr vgnd scs8hd_fill_2
XFILLER_10_93 vpwr vgnd scs8hd_fill_2
XANTENNA_mux_left_ipin_0.mux_l2_in_0_.TGATE_1_.scs8hd_ebufn_2_TEB mem_left_ipin_0.LATCH_4_.latch/Q
+ vgnd vpwr scs8hd_diode_2
XFILLER_19_123 vgnd vpwr scs8hd_decap_3
XANTENNA_mux_right_ipin_1.mux_l2_in_0_.TGATE_2_.scs8hd_ebufn_2_TEB mem_right_ipin_1.LATCH_5_.latch/Q
+ vgnd vpwr scs8hd_diode_2
XFILLER_31_15 vgnd vpwr scs8hd_decap_12
Xmux_right_ipin_7.INVTX1_0_.scs8hd_inv_1 chany_bottom_in[0] mux_right_ipin_7.INVTX1_0_.scs8hd_inv_1/Y
+ vgnd vpwr scs8hd_inv_1
XFILLER_16_126 vpwr vgnd scs8hd_fill_2
XPHY_165 vgnd vpwr scs8hd_tapvpwrvgnd_1
XFILLER_31_118 vgnd vpwr scs8hd_decap_6
XPHY_154 vgnd vpwr scs8hd_tapvpwrvgnd_1
XPHY_143 vgnd vpwr scs8hd_tapvpwrvgnd_1
XFILLER_24_181 vgnd vpwr scs8hd_decap_3
XPHY_110 vgnd vpwr scs8hd_tapvpwrvgnd_1
XPHY_121 vgnd vpwr scs8hd_tapvpwrvgnd_1
XPHY_132 vgnd vpwr scs8hd_tapvpwrvgnd_1
XPHY_1 vgnd vpwr scs8hd_decap_3
XFILLER_22_129 vpwr vgnd scs8hd_fill_2
XFILLER_7_83 vgnd vpwr scs8hd_fill_1
XFILLER_26_15 vgnd vpwr scs8hd_decap_12
XANTENNA__078__C _064_/A vgnd vpwr scs8hd_diode_2
Xmux_right_ipin_3.mux_l1_in_1_.TGATE_0_.scs8hd_ebufn_2 mux_right_ipin_3.INVTX1_3_.scs8hd_inv_1/Y
+ mem_right_ipin_3.LATCH_0_.latch/Q mux_right_ipin_3.mux_l2_in_0_.TGATE_1_.scs8hd_ebufn_2/A
+ vgnd vpwr scs8hd_ebufn_2
XANTENNA__094__B _096_/B vgnd vpwr scs8hd_diode_2
XFILLER_13_129 vpwr vgnd scs8hd_fill_2
XFILLER_3_19 vpwr vgnd scs8hd_fill_2
XFILLER_8_122 vgnd vpwr scs8hd_decap_8
Xmem_right_ipin_2.LATCH_2_.latch data_in mem_right_ipin_2.LATCH_2_.latch/Q _059_/Y
+ vgnd vpwr scs8hd_lpflow_inputisolatch_1
XANTENNA_mux_right_ipin_1.mux_l1_in_1_.TGATE_0_.scs8hd_ebufn_2_A mux_right_ipin_1.INVTX1_3_.scs8hd_inv_1/Y
+ vgnd vpwr scs8hd_diode_2
XANTENNA__089__B _086_/B vgnd vpwr scs8hd_diode_2
XANTENNA_mem_right_ipin_5.LATCH_3_.latch_SLEEPB _081_/Y vgnd vpwr scs8hd_diode_2
XFILLER_5_136 vpwr vgnd scs8hd_fill_2
XFILLER_5_114 vpwr vgnd scs8hd_fill_2
Xmem_right_ipin_4.LATCH_5_.latch data_in mem_right_ipin_4.LATCH_5_.latch/Q _072_/Y
+ vgnd vpwr scs8hd_lpflow_inputisolatch_1
XANTENNA_mux_right_ipin_6.mux_l2_in_0_.TGATE_2_.scs8hd_ebufn_2_A _132_/HI vgnd vpwr
+ scs8hd_diode_2
XFILLER_4_84 vgnd vpwr scs8hd_decap_3
XFILLER_23_27 vgnd vpwr scs8hd_decap_12
Xmux_right_ipin_7.mux_l1_in_1_.TGATE_1_.scs8hd_ebufn_2 mux_right_ipin_7.INVTX1_4_.scs8hd_inv_1/Y
+ mem_right_ipin_7.LATCH_1_.latch/Q mux_right_ipin_7.mux_l1_in_1_.TGATE_2_.scs8hd_ebufn_2/Z
+ vgnd vpwr scs8hd_ebufn_2
XFILLER_29_7 vpwr vgnd scs8hd_fill_2
XANTENNA_mux_right_ipin_2.mux_l1_in_0_.TGATE_2_.scs8hd_ebufn_2_A mux_right_ipin_2.INVTX1_2_.scs8hd_inv_1/Y
+ vgnd vpwr scs8hd_diode_2
XANTENNA_mux_right_ipin_3.mux_l2_in_0_.TGATE_1_.scs8hd_ebufn_2_TEB mem_right_ipin_3.LATCH_4_.latch/Q
+ vgnd vpwr scs8hd_diode_2
X_098_ _054_/A _096_/B _098_/Y vgnd vpwr scs8hd_nor2_4
XFILLER_1_96 vpwr vgnd scs8hd_fill_2
XFILLER_29_59 vpwr vgnd scs8hd_fill_2
XANTENNA__097__B _096_/B vgnd vpwr scs8hd_diode_2
XANTENNA_mux_right_ipin_2.mux_l2_in_0_.TGATE_0_.scs8hd_ebufn_2_A mux_right_ipin_2.mux_l1_in_0_.TGATE_1_.scs8hd_ebufn_2/Z
+ vgnd vpwr scs8hd_diode_2
XFILLER_10_50 vpwr vgnd scs8hd_fill_2
XFILLER_19_113 vgnd vpwr scs8hd_decap_3
XFILLER_19_92 vgnd vpwr scs8hd_decap_6
XANTENNA_mem_right_ipin_3.LATCH_4_.latch_SLEEPB _066_/Y vgnd vpwr scs8hd_diode_2
Xmux_left_ipin_0.mux_l1_in_0_.TGATE_0_.scs8hd_ebufn_2 mux_left_ipin_0.INVTX1_0_.scs8hd_inv_1/Y
+ mem_left_ipin_0.LATCH_0_.latch/Q mux_left_ipin_0.mux_l2_in_0_.TGATE_0_.scs8hd_ebufn_2/A
+ vgnd vpwr scs8hd_ebufn_2
XANTENNA_mux_left_ipin_0.mux_l1_in_0_.TGATE_0_.scs8hd_ebufn_2_A mux_left_ipin_0.INVTX1_0_.scs8hd_inv_1/Y
+ vgnd vpwr scs8hd_diode_2
XFILLER_25_127 vpwr vgnd scs8hd_fill_2
XFILLER_31_27 vgnd vpwr scs8hd_decap_4
XPHY_100 vgnd vpwr scs8hd_tapvpwrvgnd_1
XFILLER_16_105 vgnd vpwr scs8hd_decap_4
XPHY_155 vgnd vpwr scs8hd_tapvpwrvgnd_1