* NGSPICE file created from cby_1__1_.ext - technology: sky130A

* Black-box entry subcircuit for sky130_fd_sc_hd__decap_8 abstract view
.subckt sky130_fd_sc_hd__decap_8 VGND VNB VPB VPWR
.ends

* Black-box entry subcircuit for sky130_fd_sc_hd__fill_1 abstract view
.subckt sky130_fd_sc_hd__fill_1 VGND VNB VPB VPWR
.ends

* Black-box entry subcircuit for sky130_fd_sc_hd__decap_4 abstract view
.subckt sky130_fd_sc_hd__decap_4 VGND VNB VPB VPWR
.ends

* Black-box entry subcircuit for sky130_fd_sc_hd__mux2_1 abstract view
.subckt sky130_fd_sc_hd__mux2_1 A0 A1 S VGND VNB VPB VPWR X
.ends

* Black-box entry subcircuit for sky130_fd_sc_hd__fill_2 abstract view
.subckt sky130_fd_sc_hd__fill_2 VGND VNB VPB VPWR
.ends

* Black-box entry subcircuit for sky130_fd_sc_hd__buf_2 abstract view
.subckt sky130_fd_sc_hd__buf_2 A VGND VNB VPB VPWR X
.ends

* Black-box entry subcircuit for sky130_fd_sc_hd__dfxtp_1 abstract view
.subckt sky130_fd_sc_hd__dfxtp_1 CLK D VGND VNB VPB VPWR Q
.ends

* Black-box entry subcircuit for sky130_fd_sc_hd__decap_3 abstract view
.subckt sky130_fd_sc_hd__decap_3 VGND VNB VPB VPWR
.ends

* Black-box entry subcircuit for sky130_fd_sc_hd__buf_4 abstract view
.subckt sky130_fd_sc_hd__buf_4 A VGND VNB VPB VPWR X
.ends

* Black-box entry subcircuit for sky130_fd_sc_hd__buf_8 abstract view
.subckt sky130_fd_sc_hd__buf_8 A VGND VNB VPB VPWR X
.ends

* Black-box entry subcircuit for sky130_fd_sc_hd__clkbuf_1 abstract view
.subckt sky130_fd_sc_hd__clkbuf_1 A VGND VNB VPB VPWR X
.ends

* Black-box entry subcircuit for sky130_fd_sc_hd__conb_1 abstract view
.subckt sky130_fd_sc_hd__conb_1 VGND VNB VPB VPWR HI LO
.ends

* Black-box entry subcircuit for sky130_fd_sc_hd__decap_12 abstract view
.subckt sky130_fd_sc_hd__decap_12 VGND VNB VPB VPWR
.ends

* Black-box entry subcircuit for sky130_fd_sc_hd__tapvpwrvgnd_1 abstract view
.subckt sky130_fd_sc_hd__tapvpwrvgnd_1 VGND VPWR
.ends

* Black-box entry subcircuit for sky130_fd_sc_hd__decap_6 abstract view
.subckt sky130_fd_sc_hd__decap_6 VGND VNB VPB VPWR
.ends

* Black-box entry subcircuit for sky130_fd_sc_hd__diode_2 abstract view
.subckt sky130_fd_sc_hd__diode_2 DIODE VGND VNB VPB VPWR
.ends

* Black-box entry subcircuit for sky130_fd_sc_hd__clkbuf_16 abstract view
.subckt sky130_fd_sc_hd__clkbuf_16 A VGND VNB VPB VPWR X
.ends

.subckt cby_1__1_ Test_en_E_in Test_en_E_out Test_en_N_out Test_en_S_in Test_en_W_in
+ Test_en_W_out ccff_head ccff_tail chany_bottom_in[0] chany_bottom_in[10] chany_bottom_in[11]
+ chany_bottom_in[12] chany_bottom_in[13] chany_bottom_in[14] chany_bottom_in[15]
+ chany_bottom_in[16] chany_bottom_in[17] chany_bottom_in[18] chany_bottom_in[19]
+ chany_bottom_in[1] chany_bottom_in[2] chany_bottom_in[3] chany_bottom_in[4] chany_bottom_in[5]
+ chany_bottom_in[6] chany_bottom_in[7] chany_bottom_in[8] chany_bottom_in[9] chany_bottom_out[0]
+ chany_bottom_out[10] chany_bottom_out[11] chany_bottom_out[12] chany_bottom_out[13]
+ chany_bottom_out[14] chany_bottom_out[15] chany_bottom_out[16] chany_bottom_out[17]
+ chany_bottom_out[18] chany_bottom_out[19] chany_bottom_out[1] chany_bottom_out[2]
+ chany_bottom_out[3] chany_bottom_out[4] chany_bottom_out[5] chany_bottom_out[6]
+ chany_bottom_out[7] chany_bottom_out[8] chany_bottom_out[9] chany_top_in[0] chany_top_in[10]
+ chany_top_in[11] chany_top_in[12] chany_top_in[13] chany_top_in[14] chany_top_in[15]
+ chany_top_in[16] chany_top_in[17] chany_top_in[18] chany_top_in[19] chany_top_in[1]
+ chany_top_in[2] chany_top_in[3] chany_top_in[4] chany_top_in[5] chany_top_in[6]
+ chany_top_in[7] chany_top_in[8] chany_top_in[9] chany_top_out[0] chany_top_out[10]
+ chany_top_out[11] chany_top_out[12] chany_top_out[13] chany_top_out[14] chany_top_out[15]
+ chany_top_out[16] chany_top_out[17] chany_top_out[18] chany_top_out[19] chany_top_out[1]
+ chany_top_out[2] chany_top_out[3] chany_top_out[4] chany_top_out[5] chany_top_out[6]
+ chany_top_out[7] chany_top_out[8] chany_top_out[9] clk_2_N_in clk_2_N_out clk_2_S_in
+ clk_2_S_out clk_3_N_in clk_3_N_out clk_3_S_in clk_3_S_out left_grid_pin_16_ left_grid_pin_17_
+ left_grid_pin_18_ left_grid_pin_19_ left_grid_pin_20_ left_grid_pin_21_ left_grid_pin_22_
+ left_grid_pin_23_ left_grid_pin_24_ left_grid_pin_25_ left_grid_pin_26_ left_grid_pin_27_
+ left_grid_pin_28_ left_grid_pin_29_ left_grid_pin_30_ left_grid_pin_31_ prog_clk_0_N_out
+ prog_clk_0_S_out prog_clk_0_W_in prog_clk_2_N_in prog_clk_2_N_out prog_clk_2_S_in
+ prog_clk_2_S_out prog_clk_3_N_in prog_clk_3_N_out prog_clk_3_S_in prog_clk_3_S_out
+ VPWR VGND
XFILLER_22_144 VGND VGND VPWR VPWR sky130_fd_sc_hd__decap_8
XFILLER_7_7 VGND VGND VPWR VPWR sky130_fd_sc_hd__fill_1
XFILLER_3_78 VGND VGND VPWR VPWR sky130_fd_sc_hd__decap_4
Xmux_right_ipin_11.mux_l2_in_0_ mux_right_ipin_11.mux_l1_in_1_/X mux_right_ipin_11.mux_l1_in_0_/X
+ mux_right_ipin_11.mux_l2_in_0_/S VGND VGND VPWR VPWR mux_right_ipin_11.mux_l2_in_0_/X
+ sky130_fd_sc_hd__mux2_1
XFILLER_12_32 VGND VGND VPWR VPWR sky130_fd_sc_hd__fill_2
XFILLER_12_43 VGND VGND VPWR VPWR sky130_fd_sc_hd__decap_8
XFILLER_12_87 VGND VGND VPWR VPWR sky130_fd_sc_hd__decap_4
X_66_ chany_bottom_in[7] VGND VGND VPWR VPWR chany_top_out[7] sky130_fd_sc_hd__buf_2
Xmem_right_ipin_15.sky130_fd_sc_hd__dfxtp_1_1_ clkbuf_3_6_0_mem_right_ipin_0.prog_clk/X
+ mux_right_ipin_15.mux_l1_in_0_/S VGND VGND VPWR VPWR mux_right_ipin_15.mux_l2_in_2_/S
+ sky130_fd_sc_hd__dfxtp_1
XFILLER_2_154 VGND VGND VPWR VPWR sky130_fd_sc_hd__decap_3
Xmux_right_ipin_11.mux_l1_in_1_ chany_top_in[3] chany_bottom_in[3] mux_right_ipin_11.mux_l1_in_0_/S
+ VGND VGND VPWR VPWR mux_right_ipin_11.mux_l1_in_1_/X sky130_fd_sc_hd__mux2_1
X_49_ chany_top_in[4] VGND VGND VPWR VPWR chany_bottom_out[4] sky130_fd_sc_hd__buf_2
XFILLER_22_7 VGND VGND VPWR VPWR sky130_fd_sc_hd__fill_1
XFILLER_18_64 VGND VGND VPWR VPWR sky130_fd_sc_hd__decap_4
Xmem_right_ipin_12.sky130_fd_sc_hd__dfxtp_1_0_ clkbuf_3_7_0_mem_right_ipin_0.prog_clk/X
+ mux_right_ipin_11.mux_l4_in_0_/S VGND VGND VPWR VPWR mux_right_ipin_12.mux_l1_in_2_/S
+ sky130_fd_sc_hd__dfxtp_1
XFILLER_20_32 VGND VGND VPWR VPWR sky130_fd_sc_hd__decap_3
XFILLER_13_3 VGND VGND VPWR VPWR sky130_fd_sc_hd__fill_2
XFILLER_26_97 VGND VGND VPWR VPWR sky130_fd_sc_hd__decap_4
XFILLER_13_145 VGND VGND VPWR VPWR sky130_fd_sc_hd__decap_4
XFILLER_3_57 VGND VGND VPWR VPWR sky130_fd_sc_hd__decap_4
XFILLER_10_115 VGND VGND VPWR VPWR sky130_fd_sc_hd__decap_4
X_65_ chany_bottom_in[8] VGND VGND VPWR VPWR chany_top_out[8] sky130_fd_sc_hd__buf_2
Xmux_right_ipin_8.sky130_fd_sc_hd__buf_4_0_ mux_right_ipin_8.mux_l4_in_0_/X VGND VGND
+ VPWR VPWR left_grid_pin_24_ sky130_fd_sc_hd__buf_4
Xmem_right_ipin_15.sky130_fd_sc_hd__dfxtp_1_0_ clkbuf_3_7_0_mem_right_ipin_0.prog_clk/X
+ mux_right_ipin_14.mux_l4_in_0_/S VGND VGND VPWR VPWR mux_right_ipin_15.mux_l1_in_0_/S
+ sky130_fd_sc_hd__dfxtp_1
XFILLER_0_58 VGND VGND VPWR VPWR sky130_fd_sc_hd__decap_4
XFILLER_9_78 VGND VGND VPWR VPWR sky130_fd_sc_hd__decap_4
Xmux_right_ipin_11.mux_l1_in_0_ chany_top_in[1] chany_bottom_in[1] mux_right_ipin_11.mux_l1_in_0_/S
+ VGND VGND VPWR VPWR mux_right_ipin_11.mux_l1_in_0_/X sky130_fd_sc_hd__mux2_1
X_48_ chany_top_in[5] VGND VGND VPWR VPWR chany_bottom_out[5] sky130_fd_sc_hd__buf_2
XFILLER_18_32 VGND VGND VPWR VPWR sky130_fd_sc_hd__decap_3
XFILLER_25_121 VGND VGND VPWR VPWR sky130_fd_sc_hd__fill_1
XFILLER_15_11 VGND VGND VPWR VPWR sky130_fd_sc_hd__decap_4
XFILLER_16_154 VGND VGND VPWR VPWR sky130_fd_sc_hd__decap_3
XFILLER_22_102 VGND VGND VPWR VPWR sky130_fd_sc_hd__decap_4
XFILLER_26_65 VGND VGND VPWR VPWR sky130_fd_sc_hd__decap_4
XFILLER_6_109 VGND VGND VPWR VPWR sky130_fd_sc_hd__decap_4
XFILLER_10_149 VGND VGND VPWR VPWR sky130_fd_sc_hd__decap_4
X_64_ chany_bottom_in[9] VGND VGND VPWR VPWR chany_top_out[9] sky130_fd_sc_hd__buf_2
XFILLER_5_153 VGND VGND VPWR VPWR sky130_fd_sc_hd__decap_4
Xmux_right_ipin_3.mux_l2_in_3_ _28_/HI chany_top_in[19] mux_right_ipin_3.mux_l2_in_2_/S
+ VGND VGND VPWR VPWR mux_right_ipin_3.mux_l2_in_3_/X sky130_fd_sc_hd__mux2_1
XFILLER_3_3 VGND VGND VPWR VPWR sky130_fd_sc_hd__decap_4
X_47_ chany_top_in[6] VGND VGND VPWR VPWR chany_bottom_out[6] sky130_fd_sc_hd__buf_2
XFILLER_9_57 VGND VGND VPWR VPWR sky130_fd_sc_hd__decap_4
XFILLER_18_44 VGND VGND VPWR VPWR sky130_fd_sc_hd__decap_4
XFILLER_1_91 VGND VGND VPWR VPWR sky130_fd_sc_hd__fill_2
Xmux_right_ipin_3.mux_l4_in_0_ mux_right_ipin_3.mux_l3_in_1_/X mux_right_ipin_3.mux_l3_in_0_/X
+ mux_right_ipin_3.mux_l4_in_0_/S VGND VGND VPWR VPWR mux_right_ipin_3.mux_l4_in_0_/X
+ sky130_fd_sc_hd__mux2_1
XFILLER_25_155 VGND VGND VPWR VPWR sky130_fd_sc_hd__fill_2
XFILLER_15_78 VGND VGND VPWR VPWR sky130_fd_sc_hd__fill_2
XFILLER_22_125 VGND VGND VPWR VPWR sky130_fd_sc_hd__decap_8
Xmux_right_ipin_8.mux_l2_in_3_ _17_/HI chany_top_in[18] mux_right_ipin_8.mux_l2_in_3_/S
+ VGND VGND VPWR VPWR mux_right_ipin_8.mux_l2_in_3_/X sky130_fd_sc_hd__mux2_1
XFILLER_26_88 VGND VGND VPWR VPWR sky130_fd_sc_hd__decap_4
XFILLER_26_55 VGND VGND VPWR VPWR sky130_fd_sc_hd__fill_1
Xmux_right_ipin_3.mux_l3_in_1_ mux_right_ipin_3.mux_l2_in_3_/X mux_right_ipin_3.mux_l2_in_2_/X
+ mux_right_ipin_3.mux_l3_in_0_/S VGND VGND VPWR VPWR mux_right_ipin_3.mux_l3_in_1_/X
+ sky130_fd_sc_hd__mux2_1
XFILLER_9_118 VGND VGND VPWR VPWR sky130_fd_sc_hd__decap_4
XFILLER_3_37 VGND VGND VPWR VPWR sky130_fd_sc_hd__decap_4
XFILLER_5_7 VGND VGND VPWR VPWR sky130_fd_sc_hd__fill_1
XFILLER_10_128 VGND VGND VPWR VPWR sky130_fd_sc_hd__decap_4
XFILLER_5_132 VGND VGND VPWR VPWR sky130_fd_sc_hd__fill_2
X_63_ chany_bottom_in[10] VGND VGND VPWR VPWR chany_top_out[10] sky130_fd_sc_hd__buf_2
Xmux_right_ipin_3.mux_l2_in_2_ chany_bottom_in[19] chany_top_in[13] mux_right_ipin_3.mux_l2_in_2_/S
+ VGND VGND VPWR VPWR mux_right_ipin_3.mux_l2_in_2_/X sky130_fd_sc_hd__mux2_1
XFILLER_23_78 VGND VGND VPWR VPWR sky130_fd_sc_hd__decap_4
XFILLER_23_23 VGND VGND VPWR VPWR sky130_fd_sc_hd__decap_4
XFILLER_2_102 VGND VGND VPWR VPWR sky130_fd_sc_hd__decap_4
XFILLER_0_38 VGND VGND VPWR VPWR sky130_fd_sc_hd__decap_4
XFILLER_0_27 VGND VGND VPWR VPWR sky130_fd_sc_hd__decap_4
Xprog_clk_0_FTB00 prog_clk_0_W_in VGND VGND VPWR VPWR prog_clk_0_FTB00/X sky130_fd_sc_hd__buf_8
Xmux_right_ipin_8.mux_l4_in_0_ mux_right_ipin_8.mux_l3_in_1_/X mux_right_ipin_8.mux_l3_in_0_/X
+ mux_right_ipin_8.mux_l4_in_0_/S VGND VGND VPWR VPWR mux_right_ipin_8.mux_l4_in_0_/X
+ sky130_fd_sc_hd__mux2_1
X_46_ chany_top_in[7] VGND VGND VPWR VPWR chany_bottom_out[7] sky130_fd_sc_hd__buf_2
Xclkbuf_1_0_0_mem_right_ipin_0.prog_clk clkbuf_0_mem_right_ipin_0.prog_clk/X VGND
+ VGND VPWR VPWR clkbuf_2_1_0_mem_right_ipin_0.prog_clk/A sky130_fd_sc_hd__clkbuf_1
Xmux_right_ipin_1.sky130_fd_sc_hd__buf_4_0_ mux_right_ipin_1.mux_l4_in_0_/X VGND VGND
+ VPWR VPWR left_grid_pin_17_ sky130_fd_sc_hd__buf_4
X_29_ VGND VGND VPWR VPWR _29_/HI _29_/LO sky130_fd_sc_hd__conb_1
Xmux_right_ipin_8.mux_l3_in_1_ mux_right_ipin_8.mux_l2_in_3_/X mux_right_ipin_8.mux_l2_in_2_/X
+ mux_right_ipin_8.mux_l3_in_1_/S VGND VGND VPWR VPWR mux_right_ipin_8.mux_l3_in_1_/X
+ sky130_fd_sc_hd__mux2_1
Xprog_clk_3_N_FTB01 prog_clk_3_N_in VGND VGND VPWR VPWR prog_clk_3_N_out sky130_fd_sc_hd__buf_4
XFILLER_19_153 VGND VGND VPWR VPWR sky130_fd_sc_hd__decap_4
XFILLER_15_57 VGND VGND VPWR VPWR sky130_fd_sc_hd__decap_4
XFILLER_15_24 VGND VGND VPWR VPWR sky130_fd_sc_hd__decap_4
Xmux_right_ipin_8.mux_l2_in_2_ chany_bottom_in[18] chany_top_in[12] mux_right_ipin_8.mux_l2_in_3_/S
+ VGND VGND VPWR VPWR mux_right_ipin_8.mux_l2_in_2_/X sky130_fd_sc_hd__mux2_1
XFILLER_11_3 VGND VGND VPWR VPWR sky130_fd_sc_hd__fill_2
XFILLER_26_78 VGND VGND VPWR VPWR sky130_fd_sc_hd__decap_4
XFILLER_22_137 VGND VGND VPWR VPWR sky130_fd_sc_hd__decap_4
XFILLER_22_115 VGND VGND VPWR VPWR sky130_fd_sc_hd__decap_4
XFILLER_13_104 VGND VGND VPWR VPWR sky130_fd_sc_hd__decap_4
Xmux_right_ipin_3.mux_l3_in_0_ mux_right_ipin_3.mux_l2_in_1_/X mux_right_ipin_3.mux_l2_in_0_/X
+ mux_right_ipin_3.mux_l3_in_0_/S VGND VGND VPWR VPWR mux_right_ipin_3.mux_l3_in_0_/X
+ sky130_fd_sc_hd__mux2_1
XFILLER_8_141 VGND VGND VPWR VPWR sky130_fd_sc_hd__decap_4
XFILLER_12_14 VGND VGND VPWR VPWR sky130_fd_sc_hd__decap_4
XFILLER_5_111 VGND VGND VPWR VPWR sky130_fd_sc_hd__decap_4
X_62_ chany_bottom_in[11] VGND VGND VPWR VPWR chany_top_out[11] sky130_fd_sc_hd__buf_2
Xmux_right_ipin_3.mux_l2_in_1_ chany_bottom_in[13] mux_right_ipin_3.mux_l1_in_2_/X
+ mux_right_ipin_3.mux_l2_in_2_/S VGND VGND VPWR VPWR mux_right_ipin_3.mux_l2_in_1_/X
+ sky130_fd_sc_hd__mux2_1
XFILLER_23_57 VGND VGND VPWR VPWR sky130_fd_sc_hd__decap_4
XFILLER_23_13 VGND VGND VPWR VPWR sky130_fd_sc_hd__decap_4
XFILLER_4_81 VGND VGND VPWR VPWR sky130_fd_sc_hd__decap_4
XFILLER_9_37 VGND VGND VPWR VPWR sky130_fd_sc_hd__decap_4
X_45_ chany_top_in[8] VGND VGND VPWR VPWR chany_bottom_out[8] sky130_fd_sc_hd__buf_2
Xmux_right_ipin_12.mux_l2_in_3_ _23_/HI chany_top_in[16] mux_right_ipin_12.mux_l2_in_2_/S
+ VGND VGND VPWR VPWR mux_right_ipin_12.mux_l2_in_3_/X sky130_fd_sc_hd__mux2_1
Xmux_right_ipin_3.mux_l1_in_2_ chany_top_in[7] chany_bottom_in[7] mux_right_ipin_3.mux_l1_in_2_/S
+ VGND VGND VPWR VPWR mux_right_ipin_3.mux_l1_in_2_/X sky130_fd_sc_hd__mux2_1
X_28_ VGND VGND VPWR VPWR _28_/HI _28_/LO sky130_fd_sc_hd__conb_1
Xmux_right_ipin_8.mux_l3_in_0_ mux_right_ipin_8.mux_l2_in_1_/X mux_right_ipin_8.mux_l2_in_0_/X
+ mux_right_ipin_8.mux_l3_in_1_/S VGND VGND VPWR VPWR mux_right_ipin_8.mux_l3_in_0_/X
+ sky130_fd_sc_hd__mux2_1
XFILLER_20_14 VGND VGND VPWR VPWR sky130_fd_sc_hd__decap_4
XFILLER_19_132 VGND VGND VPWR VPWR sky130_fd_sc_hd__decap_4
XFILLER_6_27 VGND VGND VPWR VPWR sky130_fd_sc_hd__decap_4
XFILLER_25_135 VGND VGND VPWR VPWR sky130_fd_sc_hd__decap_12
XFILLER_25_113 VGND VGND VPWR VPWR sky130_fd_sc_hd__decap_8
XPHY_130 VGND VPWR sky130_fd_sc_hd__tapvpwrvgnd_1
XFILLER_16_102 VGND VGND VPWR VPWR sky130_fd_sc_hd__decap_4
Xmux_right_ipin_8.mux_l2_in_1_ chany_bottom_in[12] mux_right_ipin_8.mux_l1_in_2_/X
+ mux_right_ipin_8.mux_l2_in_3_/S VGND VGND VPWR VPWR mux_right_ipin_8.mux_l2_in_1_/X
+ sky130_fd_sc_hd__mux2_1
Xmux_right_ipin_12.mux_l4_in_0_ mux_right_ipin_12.mux_l3_in_1_/X mux_right_ipin_12.mux_l3_in_0_/X
+ mux_right_ipin_12.mux_l4_in_0_/S VGND VGND VPWR VPWR mux_right_ipin_12.mux_l4_in_0_/X
+ sky130_fd_sc_hd__mux2_1
XFILLER_26_24 VGND VGND VPWR VPWR sky130_fd_sc_hd__decap_4
XFILLER_3_17 VGND VGND VPWR VPWR sky130_fd_sc_hd__decap_4
Xmux_right_ipin_8.mux_l1_in_2_ chany_top_in[8] chany_bottom_in[8] mux_right_ipin_8.mux_l1_in_2_/S
+ VGND VGND VPWR VPWR mux_right_ipin_8.mux_l1_in_2_/X sky130_fd_sc_hd__mux2_1
X_61_ chany_bottom_in[12] VGND VGND VPWR VPWR chany_top_out[12] sky130_fd_sc_hd__buf_2
Xmux_right_ipin_12.mux_l3_in_1_ mux_right_ipin_12.mux_l2_in_3_/X mux_right_ipin_12.mux_l2_in_2_/X
+ mux_right_ipin_12.mux_l3_in_0_/S VGND VGND VPWR VPWR mux_right_ipin_12.mux_l3_in_1_/X
+ sky130_fd_sc_hd__mux2_1
Xmux_right_ipin_3.mux_l2_in_0_ mux_right_ipin_3.mux_l1_in_1_/X mux_right_ipin_3.mux_l1_in_0_/X
+ mux_right_ipin_3.mux_l2_in_2_/S VGND VGND VPWR VPWR mux_right_ipin_3.mux_l2_in_0_/X
+ sky130_fd_sc_hd__mux2_1
XFILLER_5_145 VGND VGND VPWR VPWR sky130_fd_sc_hd__decap_4
XFILLER_13_91 VGND VGND VPWR VPWR sky130_fd_sc_hd__decap_4
XFILLER_2_115 VGND VGND VPWR VPWR sky130_fd_sc_hd__decap_4
X_44_ chany_top_in[9] VGND VGND VPWR VPWR chany_bottom_out[9] sky130_fd_sc_hd__buf_2
Xmux_right_ipin_12.mux_l2_in_2_ chany_bottom_in[16] chany_top_in[12] mux_right_ipin_12.mux_l2_in_2_/S
+ VGND VGND VPWR VPWR mux_right_ipin_12.mux_l2_in_2_/X sky130_fd_sc_hd__mux2_1
XFILLER_18_14 VGND VGND VPWR VPWR sky130_fd_sc_hd__decap_4
XFILLER_1_3 VGND VGND VPWR VPWR sky130_fd_sc_hd__fill_2
Xmux_right_ipin_3.mux_l1_in_1_ chany_top_in[3] chany_bottom_in[3] mux_right_ipin_3.mux_l1_in_2_/S
+ VGND VGND VPWR VPWR mux_right_ipin_3.mux_l1_in_1_/X sky130_fd_sc_hd__mux2_1
X_27_ VGND VGND VPWR VPWR _27_/HI _27_/LO sky130_fd_sc_hd__conb_1
XFILLER_19_111 VGND VGND VPWR VPWR sky130_fd_sc_hd__decap_4
XFILLER_25_147 VGND VGND VPWR VPWR sky130_fd_sc_hd__decap_8
XFILLER_15_37 VGND VGND VPWR VPWR sky130_fd_sc_hd__decap_4
XPHY_120 VGND VPWR sky130_fd_sc_hd__tapvpwrvgnd_1
Xmux_right_ipin_8.mux_l2_in_0_ mux_right_ipin_8.mux_l1_in_1_/X mux_right_ipin_8.mux_l1_in_0_/X
+ mux_right_ipin_8.mux_l2_in_3_/S VGND VGND VPWR VPWR mux_right_ipin_8.mux_l2_in_0_/X
+ sky130_fd_sc_hd__mux2_1
XPHY_0 VGND VGND VPWR VPWR sky130_fd_sc_hd__decap_3
XFILLER_13_117 VGND VGND VPWR VPWR sky130_fd_sc_hd__decap_4
XFILLER_16_91 VGND VGND VPWR VPWR sky130_fd_sc_hd__fill_1
XFILLER_8_154 VGND VGND VPWR VPWR sky130_fd_sc_hd__decap_3
Xmux_right_ipin_8.mux_l1_in_1_ chany_top_in[2] chany_bottom_in[2] mux_right_ipin_8.mux_l1_in_2_/S
+ VGND VGND VPWR VPWR mux_right_ipin_8.mux_l1_in_1_/X sky130_fd_sc_hd__mux2_1
XFILLER_12_27 VGND VGND VPWR VPWR sky130_fd_sc_hd__decap_4
X_60_ chany_bottom_in[13] VGND VGND VPWR VPWR chany_top_out[13] sky130_fd_sc_hd__buf_2
Xmux_right_ipin_12.mux_l3_in_0_ mux_right_ipin_12.mux_l2_in_1_/X mux_right_ipin_12.mux_l2_in_0_/X
+ mux_right_ipin_12.mux_l3_in_0_/S VGND VGND VPWR VPWR mux_right_ipin_12.mux_l3_in_0_/X
+ sky130_fd_sc_hd__mux2_1
XFILLER_23_37 VGND VGND VPWR VPWR sky130_fd_sc_hd__decap_4
XFILLER_4_61 VGND VGND VPWR VPWR sky130_fd_sc_hd__decap_4
XFILLER_3_7 VGND VGND VPWR VPWR sky130_fd_sc_hd__fill_1
XFILLER_2_149 VGND VGND VPWR VPWR sky130_fd_sc_hd__decap_4
XFILLER_9_17 VGND VGND VPWR VPWR sky130_fd_sc_hd__decap_4
X_43_ chany_top_in[10] VGND VGND VPWR VPWR chany_bottom_out[10] sky130_fd_sc_hd__buf_2
Xmux_right_ipin_12.mux_l2_in_1_ chany_bottom_in[12] mux_right_ipin_12.mux_l1_in_2_/X
+ mux_right_ipin_12.mux_l2_in_2_/S VGND VGND VPWR VPWR mux_right_ipin_12.mux_l2_in_1_/X
+ sky130_fd_sc_hd__mux2_1
Xprog_clk_2_S_FTB01 prog_clk_2_N_in VGND VGND VPWR VPWR prog_clk_2_S_out sky130_fd_sc_hd__buf_4
Xmux_right_ipin_3.mux_l1_in_0_ chany_top_in[1] chany_bottom_in[1] mux_right_ipin_3.mux_l1_in_2_/S
+ VGND VGND VPWR VPWR mux_right_ipin_3.mux_l1_in_0_/X sky130_fd_sc_hd__mux2_1
XFILLER_27_3 VGND VGND VPWR VPWR sky130_fd_sc_hd__fill_1
XFILLER_24_80 VGND VGND VPWR VPWR sky130_fd_sc_hd__decap_4
Xclkbuf_3_2_0_mem_right_ipin_0.prog_clk clkbuf_3_3_0_mem_right_ipin_0.prog_clk/A VGND
+ VGND VPWR VPWR clkbuf_3_2_0_mem_right_ipin_0.prog_clk/X sky130_fd_sc_hd__clkbuf_1
X_26_ VGND VGND VPWR VPWR _26_/HI _26_/LO sky130_fd_sc_hd__conb_1
XFILLER_20_27 VGND VGND VPWR VPWR sky130_fd_sc_hd__decap_4
XFILLER_19_145 VGND VGND VPWR VPWR sky130_fd_sc_hd__decap_4
Xmux_right_ipin_12.mux_l1_in_2_ chany_top_in[6] chany_bottom_in[6] mux_right_ipin_12.mux_l1_in_2_/S
+ VGND VGND VPWR VPWR mux_right_ipin_12.mux_l1_in_2_/X sky130_fd_sc_hd__mux2_1
XPHY_121 VGND VPWR sky130_fd_sc_hd__tapvpwrvgnd_1
XPHY_110 VGND VPWR sky130_fd_sc_hd__tapvpwrvgnd_1
XFILLER_16_115 VGND VGND VPWR VPWR sky130_fd_sc_hd__decap_4
XPHY_1 VGND VGND VPWR VPWR sky130_fd_sc_hd__decap_3
Xmem_right_ipin_0.sky130_fd_sc_hd__dfxtp_1_3_ clkbuf_3_0_0_mem_right_ipin_0.prog_clk/X
+ mux_right_ipin_0.mux_l3_in_1_/S VGND VGND VPWR VPWR mux_right_ipin_0.mux_l4_in_0_/S
+ sky130_fd_sc_hd__dfxtp_1
Xmux_right_ipin_8.mux_l1_in_0_ chany_top_in[0] chany_bottom_in[0] mux_right_ipin_8.mux_l1_in_2_/S
+ VGND VGND VPWR VPWR mux_right_ipin_8.mux_l1_in_0_/X sky130_fd_sc_hd__mux2_1
Xclkbuf_3_5_0_mem_right_ipin_0.prog_clk clkbuf_3_5_0_mem_right_ipin_0.prog_clk/A VGND
+ VGND VPWR VPWR clkbuf_3_5_0_mem_right_ipin_0.prog_clk/X sky130_fd_sc_hd__clkbuf_1
XFILLER_23_27 VGND VGND VPWR VPWR sky130_fd_sc_hd__fill_1
XFILLER_2_128 VGND VGND VPWR VPWR sky130_fd_sc_hd__decap_4
X_42_ chany_top_in[11] VGND VGND VPWR VPWR chany_bottom_out[11] sky130_fd_sc_hd__buf_2
Xmux_right_ipin_12.mux_l2_in_0_ mux_right_ipin_12.mux_l1_in_1_/X mux_right_ipin_12.mux_l1_in_0_/X
+ mux_right_ipin_12.mux_l2_in_2_/S VGND VGND VPWR VPWR mux_right_ipin_12.mux_l2_in_0_/X
+ sky130_fd_sc_hd__mux2_1
XFILLER_18_27 VGND VGND VPWR VPWR sky130_fd_sc_hd__decap_4
X_25_ VGND VGND VPWR VPWR _25_/HI _25_/LO sky130_fd_sc_hd__conb_1
Xmux_right_ipin_12.sky130_fd_sc_hd__buf_4_0_ mux_right_ipin_12.mux_l4_in_0_/X VGND
+ VGND VPWR VPWR left_grid_pin_28_ sky130_fd_sc_hd__buf_4
XFILLER_25_105 VGND VGND VPWR VPWR sky130_fd_sc_hd__decap_4
Xmux_right_ipin_12.mux_l1_in_1_ chany_top_in[2] chany_bottom_in[2] mux_right_ipin_12.mux_l1_in_2_/S
+ VGND VGND VPWR VPWR mux_right_ipin_12.mux_l1_in_1_/X sky130_fd_sc_hd__mux2_1
Xmux_right_ipin_4.sky130_fd_sc_hd__buf_4_0_ mux_right_ipin_4.mux_l4_in_0_/X VGND VGND
+ VPWR VPWR left_grid_pin_20_ sky130_fd_sc_hd__buf_4
Xmem_right_ipin_3.sky130_fd_sc_hd__dfxtp_1_3_ clkbuf_3_1_0_mem_right_ipin_0.prog_clk/X
+ mux_right_ipin_3.mux_l3_in_0_/S VGND VGND VPWR VPWR mux_right_ipin_3.mux_l4_in_0_/S
+ sky130_fd_sc_hd__dfxtp_1
XFILLER_25_127 VGND VGND VPWR VPWR sky130_fd_sc_hd__decap_4
XFILLER_16_149 VGND VGND VPWR VPWR sky130_fd_sc_hd__decap_4
XPHY_100 VGND VPWR sky130_fd_sc_hd__tapvpwrvgnd_1
XPHY_122 VGND VPWR sky130_fd_sc_hd__tapvpwrvgnd_1
XPHY_111 VGND VPWR sky130_fd_sc_hd__tapvpwrvgnd_1
XPHY_2 VGND VGND VPWR VPWR sky130_fd_sc_hd__decap_3
XFILLER_26_38 VGND VGND VPWR VPWR sky130_fd_sc_hd__decap_4
Xmem_right_ipin_0.sky130_fd_sc_hd__dfxtp_1_2_ clkbuf_3_0_0_mem_right_ipin_0.prog_clk/X
+ mux_right_ipin_0.mux_l2_in_3_/S VGND VGND VPWR VPWR mux_right_ipin_0.mux_l3_in_1_/S
+ sky130_fd_sc_hd__dfxtp_1
XFILLER_12_141 VGND VGND VPWR VPWR sky130_fd_sc_hd__decap_4
XFILLER_27_92 VGND VGND VPWR VPWR sky130_fd_sc_hd__fill_1
XFILLER_4_41 VGND VGND VPWR VPWR sky130_fd_sc_hd__decap_4
X_41_ chany_top_in[12] VGND VGND VPWR VPWR chany_bottom_out[12] sky130_fd_sc_hd__buf_2
Xmem_right_ipin_6.sky130_fd_sc_hd__dfxtp_1_3_ clkbuf_3_3_0_mem_right_ipin_0.prog_clk/X
+ mux_right_ipin_6.mux_l3_in_0_/S VGND VGND VPWR VPWR mux_right_ipin_6.mux_l4_in_0_/S
+ sky130_fd_sc_hd__dfxtp_1
X_24_ VGND VGND VPWR VPWR _24_/HI _24_/LO sky130_fd_sc_hd__conb_1
Xmem_right_ipin_3.sky130_fd_sc_hd__dfxtp_1_2_ clkbuf_3_3_0_mem_right_ipin_0.prog_clk/X
+ mux_right_ipin_3.mux_l2_in_2_/S VGND VGND VPWR VPWR mux_right_ipin_3.mux_l3_in_0_/S
+ sky130_fd_sc_hd__dfxtp_1
Xmux_right_ipin_12.mux_l1_in_0_ chany_top_in[0] chany_bottom_in[0] mux_right_ipin_12.mux_l1_in_2_/S
+ VGND VGND VPWR VPWR mux_right_ipin_12.mux_l1_in_0_/X sky130_fd_sc_hd__mux2_1
XPHY_123 VGND VPWR sky130_fd_sc_hd__tapvpwrvgnd_1
XPHY_112 VGND VPWR sky130_fd_sc_hd__tapvpwrvgnd_1
XPHY_101 VGND VPWR sky130_fd_sc_hd__tapvpwrvgnd_1
XFILLER_16_128 VGND VGND VPWR VPWR sky130_fd_sc_hd__decap_4
XPHY_3 VGND VGND VPWR VPWR sky130_fd_sc_hd__decap_3
XFILLER_21_142 VGND VGND VPWR VPWR sky130_fd_sc_hd__decap_4
Xmem_right_ipin_0.sky130_fd_sc_hd__dfxtp_1_1_ clkbuf_3_2_0_mem_right_ipin_0.prog_clk/X
+ mux_right_ipin_0.mux_l1_in_2_/S VGND VGND VPWR VPWR mux_right_ipin_0.mux_l2_in_3_/S
+ sky130_fd_sc_hd__dfxtp_1
XFILLER_8_102 VGND VGND VPWR VPWR sky130_fd_sc_hd__decap_4
Xmem_right_ipin_9.sky130_fd_sc_hd__dfxtp_1_3_ clkbuf_3_4_0_mem_right_ipin_0.prog_clk/X
+ mux_right_ipin_9.mux_l3_in_1_/S VGND VGND VPWR VPWR mux_right_ipin_9.mux_l4_in_0_/S
+ sky130_fd_sc_hd__dfxtp_1
Xmem_right_ipin_11.sky130_fd_sc_hd__dfxtp_1_3_ clkbuf_3_5_0_mem_right_ipin_0.prog_clk/X
+ mux_right_ipin_11.mux_l3_in_0_/S VGND VGND VPWR VPWR mux_right_ipin_11.mux_l4_in_0_/S
+ sky130_fd_sc_hd__dfxtp_1
X_40_ chany_top_in[13] VGND VGND VPWR VPWR chany_bottom_out[13] sky130_fd_sc_hd__buf_2
Xmem_right_ipin_6.sky130_fd_sc_hd__dfxtp_1_2_ clkbuf_3_1_0_mem_right_ipin_0.prog_clk/X
+ mux_right_ipin_6.mux_l2_in_1_/S VGND VGND VPWR VPWR mux_right_ipin_6.mux_l3_in_0_/S
+ sky130_fd_sc_hd__dfxtp_1
X_23_ VGND VGND VPWR VPWR _23_/HI _23_/LO sky130_fd_sc_hd__conb_1
Xmux_right_ipin_4.mux_l2_in_3_ _29_/HI chany_top_in[14] mux_right_ipin_4.mux_l2_in_3_/S
+ VGND VGND VPWR VPWR mux_right_ipin_4.mux_l2_in_3_/X sky130_fd_sc_hd__mux2_1
XTest_en_E_FTB01 Test_en_E_in VGND VGND VPWR VPWR Test_en_E_out sky130_fd_sc_hd__buf_4
Xmem_right_ipin_3.sky130_fd_sc_hd__dfxtp_1_1_ clkbuf_3_2_0_mem_right_ipin_0.prog_clk/X
+ mux_right_ipin_3.mux_l1_in_2_/S VGND VGND VPWR VPWR mux_right_ipin_3.mux_l2_in_2_/S
+ sky130_fd_sc_hd__dfxtp_1
XFILLER_25_3 VGND VGND VPWR VPWR sky130_fd_sc_hd__fill_1
XPHY_124 VGND VPWR sky130_fd_sc_hd__tapvpwrvgnd_1
XFILLER_24_140 VGND VGND VPWR VPWR sky130_fd_sc_hd__decap_12
XPHY_113 VGND VPWR sky130_fd_sc_hd__tapvpwrvgnd_1
XPHY_102 VGND VPWR sky130_fd_sc_hd__tapvpwrvgnd_1
XPHY_4 VGND VGND VPWR VPWR sky130_fd_sc_hd__decap_3
XFILLER_21_132 VGND VGND VPWR VPWR sky130_fd_sc_hd__decap_6
Xmux_right_ipin_4.mux_l4_in_0_ mux_right_ipin_4.mux_l3_in_1_/X mux_right_ipin_4.mux_l3_in_0_/X
+ mux_right_ipin_4.mux_l4_in_0_/S VGND VGND VPWR VPWR mux_right_ipin_4.mux_l4_in_0_/X
+ sky130_fd_sc_hd__mux2_1
Xmem_right_ipin_0.sky130_fd_sc_hd__dfxtp_1_0_ clkbuf_3_0_0_mem_right_ipin_0.prog_clk/X
+ ccff_head VGND VGND VPWR VPWR mux_right_ipin_0.mux_l1_in_2_/S sky130_fd_sc_hd__dfxtp_1
Xmem_right_ipin_14.sky130_fd_sc_hd__dfxtp_1_3_ clkbuf_3_5_0_mem_right_ipin_0.prog_clk/X
+ mux_right_ipin_14.mux_l3_in_0_/S VGND VGND VPWR VPWR mux_right_ipin_14.mux_l4_in_0_/S
+ sky130_fd_sc_hd__dfxtp_1
XFILLER_12_154 VGND VGND VPWR VPWR sky130_fd_sc_hd__decap_3
Xmem_right_ipin_9.sky130_fd_sc_hd__dfxtp_1_2_ clkbuf_3_1_0_mem_right_ipin_0.prog_clk/X
+ mux_right_ipin_9.mux_l2_in_1_/S VGND VGND VPWR VPWR mux_right_ipin_9.mux_l3_in_1_/S
+ sky130_fd_sc_hd__dfxtp_1
XFILLER_27_72 VGND VGND VPWR VPWR sky130_fd_sc_hd__decap_4
Xmux_right_ipin_9.mux_l2_in_3_ _18_/HI chany_top_in[13] mux_right_ipin_9.mux_l2_in_1_/S
+ VGND VGND VPWR VPWR mux_right_ipin_9.mux_l2_in_3_/X sky130_fd_sc_hd__mux2_1
Xmux_right_ipin_4.mux_l3_in_1_ mux_right_ipin_4.mux_l2_in_3_/X mux_right_ipin_4.mux_l2_in_2_/X
+ mux_right_ipin_4.mux_l3_in_1_/S VGND VGND VPWR VPWR mux_right_ipin_4.mux_l3_in_1_/X
+ sky130_fd_sc_hd__mux2_1
Xmem_right_ipin_11.sky130_fd_sc_hd__dfxtp_1_2_ clkbuf_3_7_0_mem_right_ipin_0.prog_clk/X
+ mux_right_ipin_11.mux_l2_in_0_/S VGND VGND VPWR VPWR mux_right_ipin_11.mux_l3_in_0_/S
+ sky130_fd_sc_hd__dfxtp_1
XFILLER_1_153 VGND VGND VPWR VPWR sky130_fd_sc_hd__decap_4
Xmem_right_ipin_6.sky130_fd_sc_hd__dfxtp_1_1_ clkbuf_3_3_0_mem_right_ipin_0.prog_clk/X
+ mux_right_ipin_6.mux_l1_in_0_/S VGND VGND VPWR VPWR mux_right_ipin_6.mux_l2_in_1_/S
+ sky130_fd_sc_hd__dfxtp_1
X_22_ VGND VGND VPWR VPWR _22_/HI _22_/LO sky130_fd_sc_hd__conb_1
XFILLER_1_11 VGND VGND VPWR VPWR sky130_fd_sc_hd__decap_4
Xmux_right_ipin_4.mux_l2_in_2_ chany_bottom_in[14] chany_top_in[8] mux_right_ipin_4.mux_l2_in_3_/S
+ VGND VGND VPWR VPWR mux_right_ipin_4.mux_l2_in_2_/X sky130_fd_sc_hd__mux2_1
Xmux_right_ipin_9.mux_l4_in_0_ mux_right_ipin_9.mux_l3_in_1_/X mux_right_ipin_9.mux_l3_in_0_/X
+ mux_right_ipin_9.mux_l4_in_0_/S VGND VGND VPWR VPWR mux_right_ipin_9.mux_l4_in_0_/X
+ sky130_fd_sc_hd__mux2_1
Xmem_right_ipin_3.sky130_fd_sc_hd__dfxtp_1_0_ clkbuf_3_0_0_mem_right_ipin_0.prog_clk/X
+ mux_right_ipin_2.mux_l4_in_0_/S VGND VGND VPWR VPWR mux_right_ipin_3.mux_l1_in_2_/S
+ sky130_fd_sc_hd__dfxtp_1
XFILLER_18_3 VGND VGND VPWR VPWR sky130_fd_sc_hd__fill_2
XPHY_125 VGND VPWR sky130_fd_sc_hd__tapvpwrvgnd_1
XFILLER_24_152 VGND VGND VPWR VPWR sky130_fd_sc_hd__fill_1
XPHY_114 VGND VPWR sky130_fd_sc_hd__tapvpwrvgnd_1
XPHY_103 VGND VPWR sky130_fd_sc_hd__tapvpwrvgnd_1
XPHY_5 VGND VGND VPWR VPWR sky130_fd_sc_hd__decap_3
XFILLER_7_98 VGND VGND VPWR VPWR sky130_fd_sc_hd__decap_4
Xmux_right_ipin_9.mux_l3_in_1_ mux_right_ipin_9.mux_l2_in_3_/X mux_right_ipin_9.mux_l2_in_2_/X
+ mux_right_ipin_9.mux_l3_in_1_/S VGND VGND VPWR VPWR mux_right_ipin_9.mux_l3_in_1_/X
+ sky130_fd_sc_hd__mux2_1
XFILLER_21_111 VGND VGND VPWR VPWR sky130_fd_sc_hd__decap_4
Xmem_right_ipin_14.sky130_fd_sc_hd__dfxtp_1_2_ clkbuf_3_5_0_mem_right_ipin_0.prog_clk/X
+ mux_right_ipin_14.mux_l2_in_3_/S VGND VGND VPWR VPWR mux_right_ipin_14.mux_l3_in_0_/S
+ sky130_fd_sc_hd__dfxtp_1
XFILLER_8_115 VGND VGND VPWR VPWR sky130_fd_sc_hd__decap_4
Xmem_right_ipin_9.sky130_fd_sc_hd__dfxtp_1_1_ clkbuf_3_6_0_mem_right_ipin_0.prog_clk/X
+ mux_right_ipin_9.mux_l1_in_0_/S VGND VGND VPWR VPWR mux_right_ipin_9.mux_l2_in_1_/S
+ sky130_fd_sc_hd__dfxtp_1
Xclkbuf_2_2_0_mem_right_ipin_0.prog_clk clkbuf_2_2_0_mem_right_ipin_0.prog_clk/A VGND
+ VGND VPWR VPWR clkbuf_3_5_0_mem_right_ipin_0.prog_clk/A sky130_fd_sc_hd__clkbuf_1
Xmux_right_ipin_9.mux_l2_in_2_ chany_bottom_in[13] chany_top_in[5] mux_right_ipin_9.mux_l2_in_1_/S
+ VGND VGND VPWR VPWR mux_right_ipin_9.mux_l2_in_2_/X sky130_fd_sc_hd__mux2_1
XFILLER_5_118 VGND VGND VPWR VPWR sky130_fd_sc_hd__decap_4
XFILLER_4_88 VGND VGND VPWR VPWR sky130_fd_sc_hd__decap_4
Xmux_right_ipin_4.mux_l3_in_0_ mux_right_ipin_4.mux_l2_in_1_/X mux_right_ipin_4.mux_l2_in_0_/X
+ mux_right_ipin_4.mux_l3_in_1_/S VGND VGND VPWR VPWR mux_right_ipin_4.mux_l3_in_0_/X
+ sky130_fd_sc_hd__mux2_1
Xmem_right_ipin_11.sky130_fd_sc_hd__dfxtp_1_1_ clkbuf_3_7_0_mem_right_ipin_0.prog_clk/X
+ mux_right_ipin_11.mux_l1_in_0_/S VGND VGND VPWR VPWR mux_right_ipin_11.mux_l2_in_0_/S
+ sky130_fd_sc_hd__dfxtp_1
Xclk_3_S_FTB01 clk_3_N_in VGND VGND VPWR VPWR clk_3_S_out sky130_fd_sc_hd__buf_4
XFILLER_1_132 VGND VGND VPWR VPWR sky130_fd_sc_hd__decap_4
XFILLER_1_121 VGND VGND VPWR VPWR sky130_fd_sc_hd__fill_1
Xmem_right_ipin_6.sky130_fd_sc_hd__dfxtp_1_0_ clkbuf_3_1_0_mem_right_ipin_0.prog_clk/X
+ mux_right_ipin_5.mux_l4_in_0_/S VGND VGND VPWR VPWR mux_right_ipin_6.mux_l1_in_0_/S
+ sky130_fd_sc_hd__dfxtp_1
X_21_ VGND VGND VPWR VPWR _21_/HI _21_/LO sky130_fd_sc_hd__conb_1
Xmux_right_ipin_4.mux_l2_in_1_ chany_bottom_in[8] mux_right_ipin_4.mux_l1_in_2_/X
+ mux_right_ipin_4.mux_l2_in_3_/S VGND VGND VPWR VPWR mux_right_ipin_4.mux_l2_in_1_/X
+ sky130_fd_sc_hd__mux2_1
XFILLER_1_78 VGND VGND VPWR VPWR sky130_fd_sc_hd__decap_4
Xmux_right_ipin_15.sky130_fd_sc_hd__buf_4_0_ mux_right_ipin_15.mux_l4_in_0_/X VGND
+ VGND VPWR VPWR left_grid_pin_31_ sky130_fd_sc_hd__buf_4
Xmux_right_ipin_13.mux_l2_in_3_ _24_/HI chany_top_in[17] mux_right_ipin_13.mux_l2_in_2_/S
+ VGND VGND VPWR VPWR mux_right_ipin_13.mux_l2_in_3_/X sky130_fd_sc_hd__mux2_1
XPHY_126 VGND VPWR sky130_fd_sc_hd__tapvpwrvgnd_1
XPHY_115 VGND VPWR sky130_fd_sc_hd__tapvpwrvgnd_1
XPHY_104 VGND VPWR sky130_fd_sc_hd__tapvpwrvgnd_1
Xmux_right_ipin_4.mux_l1_in_2_ chany_top_in[4] chany_bottom_in[4] mux_right_ipin_4.mux_l1_in_0_/S
+ VGND VGND VPWR VPWR mux_right_ipin_4.mux_l1_in_2_/X sky130_fd_sc_hd__mux2_1
Xmux_right_ipin_7.sky130_fd_sc_hd__buf_4_0_ mux_right_ipin_7.mux_l4_in_0_/X VGND VGND