* NGSPICE file created from cby_0__1_.ext - technology: EFS8A

* Black-box entry subcircuit for scs8hd_decap_3 abstract view
.subckt scs8hd_decap_3 vgnd vpwr
.ends

* Black-box entry subcircuit for scs8hd_decap_6 abstract view
.subckt scs8hd_decap_6 vgnd vpwr
.ends

* Black-box entry subcircuit for scs8hd_diode_2 abstract view
.subckt scs8hd_diode_2 DIODE vgnd vpwr
.ends

* Black-box entry subcircuit for scs8hd_inv_1 abstract view
.subckt scs8hd_inv_1 A Y vgnd vpwr
.ends

* Black-box entry subcircuit for scs8hd_decap_12 abstract view
.subckt scs8hd_decap_12 vgnd vpwr
.ends

* Black-box entry subcircuit for scs8hd_fill_2 abstract view
.subckt scs8hd_fill_2 vpwr vgnd
.ends

* Black-box entry subcircuit for scs8hd_ebufn_2 abstract view
.subckt scs8hd_ebufn_2 A TEB Z vgnd vpwr
.ends

* Black-box entry subcircuit for scs8hd_or3_4 abstract view
.subckt scs8hd_or3_4 A B C X vgnd vpwr
.ends

* Black-box entry subcircuit for scs8hd_decap_4 abstract view
.subckt scs8hd_decap_4 vgnd vpwr
.ends

* Black-box entry subcircuit for scs8hd_nor2_4 abstract view
.subckt scs8hd_nor2_4 A B Y vgnd vpwr
.ends

* Black-box entry subcircuit for scs8hd_lpflow_inputisolatch_1 abstract view
.subckt scs8hd_lpflow_inputisolatch_1 D Q SLEEPB vgnd vpwr
.ends

* Black-box entry subcircuit for scs8hd_fill_1 abstract view
.subckt scs8hd_fill_1 vgnd vpwr
.ends

* Black-box entry subcircuit for scs8hd_decap_8 abstract view
.subckt scs8hd_decap_8 vgnd vpwr
.ends

* Black-box entry subcircuit for scs8hd_tapvpwrvgnd_1 abstract view
.subckt scs8hd_tapvpwrvgnd_1 vgnd vpwr
.ends

* Black-box entry subcircuit for scs8hd_buf_2 abstract view
.subckt scs8hd_buf_2 A X vgnd vpwr
.ends

* Black-box entry subcircuit for scs8hd_buf_1 abstract view
.subckt scs8hd_buf_1 A X vgnd vpwr
.ends

* Black-box entry subcircuit for scs8hd_inv_8 abstract view
.subckt scs8hd_inv_8 A Y vgnd vpwr
.ends

* Black-box entry subcircuit for scs8hd_nor3_4 abstract view
.subckt scs8hd_nor3_4 A B C Y vgnd vpwr
.ends

* Black-box entry subcircuit for scs8hd_conb_1 abstract view
.subckt scs8hd_conb_1 HI LO vgnd vpwr
.ends

* Black-box entry subcircuit for scs8hd_or2_4 abstract view
.subckt scs8hd_or2_4 A B X vgnd vpwr
.ends

* Black-box entry subcircuit for scs8hd_or4_4 abstract view
.subckt scs8hd_or4_4 A B C D X vgnd vpwr
.ends

.subckt cby_0__1_ address[0] address[1] address[2] address[3] address[4] address[5]
+ address[6] chany_bottom_in[0] chany_bottom_in[1] chany_bottom_in[2] chany_bottom_in[3]
+ chany_bottom_in[4] chany_bottom_in[5] chany_bottom_in[6] chany_bottom_in[7] chany_bottom_in[8]
+ chany_bottom_out[0] chany_bottom_out[1] chany_bottom_out[2] chany_bottom_out[3]
+ chany_bottom_out[4] chany_bottom_out[5] chany_bottom_out[6] chany_bottom_out[7]
+ chany_bottom_out[8] chany_top_in[0] chany_top_in[1] chany_top_in[2] chany_top_in[3]
+ chany_top_in[4] chany_top_in[5] chany_top_in[6] chany_top_in[7] chany_top_in[8]
+ chany_top_out[0] chany_top_out[1] chany_top_out[2] chany_top_out[3] chany_top_out[4]
+ chany_top_out[5] chany_top_out[6] chany_top_out[7] chany_top_out[8] data_in enable
+ left_grid_pin_0_ left_grid_pin_10_ left_grid_pin_12_ left_grid_pin_14_ left_grid_pin_2_
+ left_grid_pin_4_ left_grid_pin_6_ left_grid_pin_8_ right_grid_pin_3_ right_grid_pin_7_
+ vpwr vgnd
XFILLER_26_41 vgnd vpwr scs8hd_decap_3
XFILLER_9_115 vgnd vpwr scs8hd_decap_6
XANTENNA__113__B _112_/B vgnd vpwr scs8hd_diode_2
Xmux_right_ipin_4.INVTX1_2_.scs8hd_inv_1 chany_bottom_in[5] mux_right_ipin_4.INVTX1_2_.scs8hd_inv_1/Y
+ vgnd vpwr scs8hd_inv_1
XANTENNA_mux_right_ipin_6.mux_l2_in_0_.TGATE_1_.scs8hd_ebufn_2_TEB mem_right_ipin_6.LATCH_4_.latch/Q
+ vgnd vpwr scs8hd_diode_2
XFILLER_63_39 vgnd vpwr scs8hd_decap_12
XFILLER_10_125 vgnd vpwr scs8hd_decap_12
XFILLER_37_62 vpwr vgnd scs8hd_fill_2
XANTENNA__108__B _109_/B vgnd vpwr scs8hd_diode_2
XANTENNA__124__A _088_/A vgnd vpwr scs8hd_diode_2
Xmux_right_ipin_0.mux_l1_in_0_.TGATE_2_.scs8hd_ebufn_2 mux_right_ipin_0.INVTX1_2_.scs8hd_inv_1/Y
+ mem_right_ipin_0.LATCH_2_.latch/Q mux_right_ipin_0.mux_l1_in_0_.TGATE_2_.scs8hd_ebufn_2/Z
+ vgnd vpwr scs8hd_ebufn_2
XANTENNA_mem_right_ipin_6.LATCH_3_.latch_SLEEPB _131_/Y vgnd vpwr scs8hd_diode_2
XANTENNA_mem_left_ipin_0.LATCH_1_.latch_SLEEPB _169_/Y vgnd vpwr scs8hd_diode_2
XANTENNA_mux_left_ipin_0.mux_l2_in_0_.TGATE_0_.scs8hd_ebufn_2_TEB mem_left_ipin_0.LATCH_3_.latch/Q
+ vgnd vpwr scs8hd_diode_2
XANTENNA_mux_right_ipin_1.mux_l2_in_0_.TGATE_1_.scs8hd_ebufn_2_TEB mem_right_ipin_1.LATCH_4_.latch/Q
+ vgnd vpwr scs8hd_diode_2
X_062_ address[1] address[2] address[0] _062_/X vgnd vpwr scs8hd_or3_4
XFILLER_23_31 vgnd vpwr scs8hd_decap_4
X_131_ _131_/A _129_/B _131_/Y vgnd vpwr scs8hd_nor2_4
XFILLER_23_75 vpwr vgnd scs8hd_fill_2
XFILLER_23_97 vpwr vgnd scs8hd_fill_2
XFILLER_48_83 vpwr vgnd scs8hd_fill_2
XANTENNA__110__C _118_/C vgnd vpwr scs8hd_diode_2
XFILLER_9_22 vgnd vpwr scs8hd_decap_3
XANTENNA__119__A _118_/X vgnd vpwr scs8hd_diode_2
XFILLER_50_3 vgnd vpwr scs8hd_decap_12
XFILLER_18_75 vgnd vpwr scs8hd_decap_4
Xmux_right_ipin_7.mux_l1_in_1_.TGATE_0_.scs8hd_ebufn_2 mux_right_ipin_7.INVTX1_3_.scs8hd_inv_1/Y
+ mem_right_ipin_7.LATCH_0_.latch/Q mux_right_ipin_7.mux_l1_in_1_.TGATE_1_.scs8hd_ebufn_2/Z
+ vgnd vpwr scs8hd_ebufn_2
X_114_ _086_/A _112_/B _114_/Y vgnd vpwr scs8hd_nor2_4
XANTENNA__121__B _125_/B vgnd vpwr scs8hd_diode_2
Xmem_right_ipin_2.LATCH_1_.latch data_in mem_right_ipin_2.LATCH_1_.latch/Q _097_/Y
+ vgnd vpwr scs8hd_lpflow_inputisolatch_1
XANTENNA_mux_right_ipin_2.mux_l1_in_1_.TGATE_2_.scs8hd_ebufn_2_A mux_right_ipin_2.INVTX1_5_.scs8hd_inv_1/Y
+ vgnd vpwr scs8hd_diode_2
XFILLER_20_32 vgnd vpwr scs8hd_decap_3
XFILLER_20_65 vpwr vgnd scs8hd_fill_2
XFILLER_29_96 vpwr vgnd scs8hd_fill_2
XFILLER_45_62 vgnd vpwr scs8hd_fill_1
XFILLER_45_51 vpwr vgnd scs8hd_fill_2
XFILLER_43_120 vpwr vgnd scs8hd_fill_2
XFILLER_35_109 vpwr vgnd scs8hd_fill_2
XANTENNA__116__B _112_/B vgnd vpwr scs8hd_diode_2
XFILLER_6_89 vgnd vpwr scs8hd_decap_3
XANTENNA__132__A _166_/B vgnd vpwr scs8hd_diode_2
XFILLER_13_3 vgnd vpwr scs8hd_decap_6
Xmem_right_ipin_4.LATCH_4_.latch data_in mem_right_ipin_4.LATCH_4_.latch/Q _113_/Y
+ vgnd vpwr scs8hd_lpflow_inputisolatch_1
XFILLER_17_109 vpwr vgnd scs8hd_fill_2
XANTENNA_mux_right_ipin_2.INVTX1_5_.scs8hd_inv_1_A chany_top_in[8] vgnd vpwr scs8hd_diode_2
XANTENNA_mem_right_ipin_4.LATCH_4_.latch_SLEEPB _113_/Y vgnd vpwr scs8hd_diode_2
XFILLER_40_145 vgnd vpwr scs8hd_fill_1
XFILLER_31_20 vgnd vpwr scs8hd_fill_1
XFILLER_31_53 vgnd vpwr scs8hd_decap_3
XFILLER_31_75 vgnd vpwr scs8hd_decap_4
XFILLER_56_83 vgnd vpwr scs8hd_decap_8
XFILLER_16_131 vgnd vpwr scs8hd_decap_12
XPHY_170 vgnd vpwr scs8hd_tapvpwrvgnd_1
XFILLER_31_101 vpwr vgnd scs8hd_fill_2
XFILLER_31_123 vgnd vpwr scs8hd_decap_12
XANTENNA__127__A address[5] vgnd vpwr scs8hd_diode_2
XPHY_181 vgnd vpwr scs8hd_tapvpwrvgnd_1
XPHY_192 vgnd vpwr scs8hd_tapvpwrvgnd_1
XANTENNA_mux_right_ipin_3.mux_l2_in_0_.TGATE_0_.scs8hd_ebufn_2_TEB mem_right_ipin_3.LATCH_3_.latch/Q
+ vgnd vpwr scs8hd_diode_2
XFILLER_13_101 vgnd vpwr scs8hd_decap_4
XFILLER_13_112 vgnd vpwr scs8hd_decap_8
XFILLER_13_123 vgnd vpwr scs8hd_decap_12
XANTENNA_mux_left_ipin_0.mux_l1_in_1_.TGATE_0_.scs8hd_ebufn_2_A mux_left_ipin_0.INVTX1_3_.scs8hd_inv_1/Y
+ vgnd vpwr scs8hd_diode_2
XFILLER_26_64 vgnd vpwr scs8hd_decap_4
XFILLER_26_86 vgnd vpwr scs8hd_fill_1
XFILLER_3_57 vpwr vgnd scs8hd_fill_2
XFILLER_10_137 vgnd vpwr scs8hd_decap_8
XFILLER_12_22 vgnd vpwr scs8hd_decap_8
XFILLER_12_66 vgnd vpwr scs8hd_decap_3
XFILLER_37_41 vgnd vpwr scs8hd_decap_3
XFILLER_37_96 vpwr vgnd scs8hd_fill_2
XFILLER_53_95 vpwr vgnd scs8hd_fill_2
XFILLER_53_62 vpwr vgnd scs8hd_fill_2
XANTENNA_mux_right_ipin_3.mux_l2_in_0_.TGATE_2_.scs8hd_ebufn_2_A _175_/HI vgnd vpwr
+ scs8hd_diode_2
XANTENNA__124__B _125_/B vgnd vpwr scs8hd_diode_2
XANTENNA__140__A _166_/B vgnd vpwr scs8hd_diode_2
Xmux_right_ipin_2.INVTX1_2_.scs8hd_inv_1 chany_bottom_in[4] mux_right_ipin_2.INVTX1_2_.scs8hd_inv_1/Y
+ vgnd vpwr scs8hd_inv_1
X_130_ _159_/B _129_/B _130_/Y vgnd vpwr scs8hd_nor2_4
XFILLER_23_10 vpwr vgnd scs8hd_fill_2
XFILLER_48_51 vgnd vpwr scs8hd_decap_4
XFILLER_64_94 vgnd vpwr scs8hd_decap_12
XANTENNA_mem_right_ipin_2.LATCH_5_.latch_SLEEPB _093_/Y vgnd vpwr scs8hd_diode_2
XFILLER_0_58 vpwr vgnd scs8hd_fill_2
XFILLER_9_34 vpwr vgnd scs8hd_fill_2
XANTENNA__135__A address[5] vgnd vpwr scs8hd_diode_2
XFILLER_43_3 vgnd vpwr scs8hd_decap_6
XANTENNA_mem_right_ipin_0.LATCH_5_.latch_D data_in vgnd vpwr scs8hd_diode_2
XFILLER_18_32 vgnd vpwr scs8hd_decap_4
XFILLER_18_43 vgnd vpwr scs8hd_decap_4
Xmux_left_ipin_1.mux_l2_in_0_.TGATE_0_.scs8hd_ebufn_2 mux_left_ipin_1.mux_l1_in_0_.TGATE_0_.scs8hd_ebufn_2/Z
+ _145_/A mux_left_ipin_1.tap_buf4_0_.scs8hd_inv_1/A vgnd vpwr scs8hd_ebufn_2
XANTENNA_mem_right_ipin_1.LATCH_3_.latch_D data_in vgnd vpwr scs8hd_diode_2
X_113_ _085_/A _112_/B _113_/Y vgnd vpwr scs8hd_nor2_4
XFILLER_50_41 vgnd vpwr scs8hd_decap_8
XFILLER_34_64 vpwr vgnd scs8hd_fill_2
XFILLER_59_72 vpwr vgnd scs8hd_fill_2
XANTENNA_mem_right_ipin_2.LATCH_1_.latch_D data_in vgnd vpwr scs8hd_diode_2
XFILLER_46_140 vgnd vpwr scs8hd_decap_6
XFILLER_15_7 vgnd vpwr scs8hd_fill_1
Xmem_right_ipin_5.LATCH_0_.latch data_in mem_right_ipin_5.LATCH_0_.latch/Q _125_/Y
+ vgnd vpwr scs8hd_lpflow_inputisolatch_1
XFILLER_61_143 vgnd vpwr scs8hd_decap_3
XFILLER_61_121 vgnd vpwr scs8hd_fill_1
XANTENNA_mux_left_ipin_1.mux_l2_in_0_.TGATE_0_.scs8hd_ebufn_2_A mux_left_ipin_1.mux_l1_in_0_.TGATE_0_.scs8hd_ebufn_2/Z
+ vgnd vpwr scs8hd_diode_2
XANTENNA_mux_right_ipin_0.INVTX1_2_.scs8hd_inv_1_A chany_bottom_in[2] vgnd vpwr scs8hd_diode_2
XFILLER_29_75 vgnd vpwr scs8hd_fill_1
XFILLER_43_143 vgnd vpwr scs8hd_decap_3
XFILLER_61_51 vgnd vpwr scs8hd_decap_8
Xmem_right_ipin_7.LATCH_3_.latch data_in mem_right_ipin_7.LATCH_3_.latch/Q _139_/Y
+ vgnd vpwr scs8hd_lpflow_inputisolatch_1
XANTENNA_mux_right_ipin_4.INVTX1_3_.scs8hd_inv_1_A chany_top_in[5] vgnd vpwr scs8hd_diode_2
XANTENNA_mux_right_ipin_6.mux_l1_in_0_.TGATE_1_.scs8hd_ebufn_2_A mux_right_ipin_6.INVTX1_1_.scs8hd_inv_1/Y
+ vgnd vpwr scs8hd_diode_2
XANTENNA__132__B _129_/B vgnd vpwr scs8hd_diode_2
XFILLER_25_121 vgnd vpwr scs8hd_fill_1
XFILLER_31_32 vpwr vgnd scs8hd_fill_2
XFILLER_56_51 vpwr vgnd scs8hd_fill_2
XPHY_160 vgnd vpwr scs8hd_tapvpwrvgnd_1
XFILLER_16_143 vgnd vpwr scs8hd_decap_3
XPHY_171 vgnd vpwr scs8hd_tapvpwrvgnd_1
XPHY_182 vgnd vpwr scs8hd_tapvpwrvgnd_1
XPHY_193 vgnd vpwr scs8hd_tapvpwrvgnd_1
XFILLER_31_135 vgnd vpwr scs8hd_decap_8
XANTENNA__127__B _127_/B vgnd vpwr scs8hd_diode_2
XANTENNA__143__A _082_/C vgnd vpwr scs8hd_diode_2
XFILLER_22_102 vpwr vgnd scs8hd_fill_2
XANTENNA_mem_right_ipin_5.LATCH_5_.latch_D data_in vgnd vpwr scs8hd_diode_2
XANTENNA_mem_left_ipin_0.LATCH_2_.latch_D data_in vgnd vpwr scs8hd_diode_2
XFILLER_26_10 vpwr vgnd scs8hd_fill_2
XFILLER_42_53 vgnd vpwr scs8hd_decap_8
XFILLER_13_135 vgnd vpwr scs8hd_decap_8
XANTENNA_mem_right_ipin_6.LATCH_3_.latch_D data_in vgnd vpwr scs8hd_diode_2
XANTENNA_mem_left_ipin_1.LATCH_0_.latch_D data_in vgnd vpwr scs8hd_diode_2
XFILLER_3_36 vpwr vgnd scs8hd_fill_2
XFILLER_3_25 vpwr vgnd scs8hd_fill_2
XANTENNA_mem_right_ipin_7.LATCH_1_.latch_D data_in vgnd vpwr scs8hd_diode_2
XANTENNA__138__A _159_/B vgnd vpwr scs8hd_diode_2
Xmux_right_ipin_6.mux_l1_in_1_.TGATE_0_.scs8hd_ebufn_2 mux_right_ipin_6.INVTX1_3_.scs8hd_inv_1/Y
+ mem_right_ipin_6.LATCH_0_.latch/Q mux_right_ipin_6.mux_l1_in_1_.TGATE_0_.scs8hd_ebufn_2/Z
+ vgnd vpwr scs8hd_ebufn_2
XFILLER_12_78 vgnd vpwr scs8hd_decap_12
XFILLER_37_31 vpwr vgnd scs8hd_fill_2
XFILLER_37_53 vpwr vgnd scs8hd_fill_2
XFILLER_37_75 vpwr vgnd scs8hd_fill_2
XFILLER_53_74 vpwr vgnd scs8hd_fill_2
XFILLER_53_52 vpwr vgnd scs8hd_fill_2
XANTENNA__140__B _142_/B vgnd vpwr scs8hd_diode_2
XANTENNA_mux_right_ipin_0.tap_buf4_0_.scs8hd_inv_1_A mux_right_ipin_0.tap_buf4_0_.scs8hd_inv_1/A
+ vgnd vpwr scs8hd_diode_2
XFILLER_59_127 vpwr vgnd scs8hd_fill_2
XFILLER_59_105 vgnd vpwr scs8hd_decap_12
XFILLER_4_90 vpwr vgnd scs8hd_fill_2
XFILLER_3_3 vgnd vpwr scs8hd_decap_12
XFILLER_2_145 vgnd vpwr scs8hd_fill_1
XFILLER_48_96 vpwr vgnd scs8hd_fill_2
XFILLER_0_15 vgnd vpwr scs8hd_decap_8
XFILLER_0_37 vpwr vgnd scs8hd_fill_2
X_189_ chany_bottom_in[8] chany_top_out[8] vgnd vpwr scs8hd_buf_2
XFILLER_9_79 vpwr vgnd scs8hd_fill_2
XFILLER_9_57 vpwr vgnd scs8hd_fill_2
XANTENNA__135__B _127_/B vgnd vpwr scs8hd_diode_2
XANTENNA__151__A _129_/A vgnd vpwr scs8hd_diode_2
XFILLER_34_10 vpwr vgnd scs8hd_fill_2
XFILLER_34_32 vpwr vgnd scs8hd_fill_2
X_112_ _084_/A _112_/B _112_/Y vgnd vpwr scs8hd_nor2_4
XFILLER_34_87 vgnd vpwr scs8hd_decap_4
XFILLER_59_95 vpwr vgnd scs8hd_fill_2
XFILLER_59_62 vgnd vpwr scs8hd_fill_1
Xmux_right_ipin_0.INVTX1_2_.scs8hd_inv_1 chany_bottom_in[2] mux_right_ipin_0.INVTX1_2_.scs8hd_inv_1/Y
+ vgnd vpwr scs8hd_inv_1
XANTENNA_mux_right_ipin_2.INVTX1_0_.scs8hd_inv_1_A chany_bottom_in[3] vgnd vpwr scs8hd_diode_2
XANTENNA__146__A _146_/A vgnd vpwr scs8hd_diode_2
Xmux_left_ipin_1.tap_buf4_0_.scs8hd_inv_1 mux_left_ipin_1.tap_buf4_0_.scs8hd_inv_1/A
+ right_grid_pin_7_ vgnd vpwr scs8hd_inv_1
XANTENNA_mux_right_ipin_3.mux_l1_in_1_.TGATE_2_.scs8hd_ebufn_2_A mux_right_ipin_3.INVTX1_5_.scs8hd_inv_1/Y
+ vgnd vpwr scs8hd_diode_2
XANTENNA_mux_right_ipin_6.INVTX1_1_.scs8hd_inv_1_A chany_top_in[3] vgnd vpwr scs8hd_diode_2
XFILLER_20_12 vpwr vgnd scs8hd_fill_2
XFILLER_20_23 vpwr vgnd scs8hd_fill_2
XFILLER_29_54 vgnd vpwr scs8hd_fill_1
XANTENNA_mem_right_ipin_7.LATCH_5_.latch_SLEEPB _137_/Y vgnd vpwr scs8hd_diode_2
XANTENNA_mem_right_ipin_1.LATCH_0_.latch_SLEEPB _089_/Y vgnd vpwr scs8hd_diode_2
XFILLER_15_23 vpwr vgnd scs8hd_fill_2
Xmux_left_ipin_0.INVTX1_1_.scs8hd_inv_1 chany_top_in[0] mux_left_ipin_0.INVTX1_1_.scs8hd_inv_1/Y
+ vgnd vpwr scs8hd_inv_1
XANTENNA_mux_right_ipin_6.mux_l1_in_0_.TGATE_2_.scs8hd_ebufn_2_TEB mem_right_ipin_6.LATCH_2_.latch/Q
+ vgnd vpwr scs8hd_diode_2
XPHY_150 vgnd vpwr scs8hd_tapvpwrvgnd_1
XPHY_161 vgnd vpwr scs8hd_tapvpwrvgnd_1
XPHY_172 vgnd vpwr scs8hd_tapvpwrvgnd_1
XPHY_183 vgnd vpwr scs8hd_tapvpwrvgnd_1
XPHY_194 vgnd vpwr scs8hd_tapvpwrvgnd_1
XANTENNA__127__C _154_/C vgnd vpwr scs8hd_diode_2
XANTENNA__143__B _101_/X vgnd vpwr scs8hd_diode_2
Xmux_right_ipin_7.INVTX1_3_.scs8hd_inv_1 chany_top_in[4] mux_right_ipin_7.INVTX1_3_.scs8hd_inv_1/Y
+ vgnd vpwr scs8hd_inv_1
XFILLER_42_87 vgnd vpwr scs8hd_decap_4
XFILLER_42_76 vpwr vgnd scs8hd_fill_2
XFILLER_42_32 vgnd vpwr scs8hd_decap_3
Xmem_right_ipin_0.LATCH_4_.latch data_in mem_right_ipin_0.LATCH_4_.latch/Q _072_/Y
+ vgnd vpwr scs8hd_lpflow_inputisolatch_1
XFILLER_3_15 vgnd vpwr scs8hd_decap_6
XANTENNA__138__B _142_/B vgnd vpwr scs8hd_diode_2
XANTENNA_mux_left_ipin_0.mux_l1_in_0_.TGATE_1_.scs8hd_ebufn_2_TEB mem_left_ipin_0.LATCH_1_.latch/Q
+ vgnd vpwr scs8hd_diode_2
XANTENNA__154__A address[5] vgnd vpwr scs8hd_diode_2
XANTENNA_mux_right_ipin_1.mux_l1_in_0_.TGATE_2_.scs8hd_ebufn_2_TEB mem_right_ipin_1.LATCH_2_.latch/Q
+ vgnd vpwr scs8hd_diode_2
Xmux_left_ipin_0.mux_l2_in_0_.TGATE_0_.scs8hd_ebufn_2 mux_left_ipin_0.mux_l1_in_0_.TGATE_1_.scs8hd_ebufn_2/Z
+ mem_left_ipin_0.LATCH_3_.latch/Q mux_left_ipin_0.tap_buf4_0_.scs8hd_inv_1/A vgnd
+ vpwr scs8hd_ebufn_2
XFILLER_12_46 vpwr vgnd scs8hd_fill_2
XANTENNA__064__A _156_/B vgnd vpwr scs8hd_diode_2
XANTENNA_mux_right_ipin_4.mux_l2_in_0_.TGATE_2_.scs8hd_ebufn_2_A _176_/HI vgnd vpwr
+ scs8hd_diode_2
XFILLER_5_143 vgnd vpwr scs8hd_decap_3
XFILLER_38_7 vgnd vpwr scs8hd_decap_12
XANTENNA__149__A address[1] vgnd vpwr scs8hd_diode_2
XFILLER_59_117 vgnd vpwr scs8hd_decap_4
XANTENNA_mux_right_ipin_4.mux_l1_in_1_.TGATE_2_.scs8hd_ebufn_2_TEB mem_right_ipin_4.LATCH_2_.latch/Q
+ vgnd vpwr scs8hd_diode_2
XFILLER_2_113 vgnd vpwr scs8hd_decap_12
XFILLER_2_102 vpwr vgnd scs8hd_fill_2
XANTENNA_mux_right_ipin_0.mux_l1_in_0_.TGATE_2_.scs8hd_ebufn_2_A mux_right_ipin_0.INVTX1_2_.scs8hd_inv_1/Y
+ vgnd vpwr scs8hd_diode_2
XFILLER_0_27 vpwr vgnd scs8hd_fill_2
XFILLER_64_63 vgnd vpwr scs8hd_decap_12
X_188_ chany_top_in[0] chany_bottom_out[0] vgnd vpwr scs8hd_buf_2
XANTENNA__135__C _099_/C vgnd vpwr scs8hd_diode_2
XFILLER_29_3 vgnd vpwr scs8hd_decap_4
XFILLER_18_12 vgnd vpwr scs8hd_decap_8
XFILLER_18_23 vpwr vgnd scs8hd_fill_2
XFILLER_18_56 vpwr vgnd scs8hd_fill_2
XFILLER_50_87 vgnd vpwr scs8hd_decap_4
XFILLER_50_76 vpwr vgnd scs8hd_fill_2
X_111_ _111_/A _112_/B vgnd vpwr scs8hd_buf_1
XFILLER_61_123 vgnd vpwr scs8hd_decap_12
XFILLER_61_101 vgnd vpwr scs8hd_decap_12
XANTENNA__162__A _162_/A vgnd vpwr scs8hd_diode_2
XFILLER_29_109 vgnd vpwr scs8hd_decap_12
XFILLER_52_145 vgnd vpwr scs8hd_fill_1
XFILLER_1_70 vgnd vpwr scs8hd_decap_4
XFILLER_1_92 vpwr vgnd scs8hd_fill_2
XANTENNA__072__A _085_/A vgnd vpwr scs8hd_diode_2
XFILLER_20_57 vgnd vpwr scs8hd_decap_6
XFILLER_29_33 vpwr vgnd scs8hd_fill_2
XFILLER_43_123 vgnd vpwr scs8hd_decap_12
XFILLER_43_112 vgnd vpwr scs8hd_decap_8
XANTENNA_mux_right_ipin_0.mux_l2_in_0_.TGATE_0_.scs8hd_ebufn_2_A mux_right_ipin_0.mux_l1_in_0_.TGATE_2_.scs8hd_ebufn_2/Z
+ vgnd vpwr scs8hd_diode_2
XFILLER_61_86 vgnd vpwr scs8hd_decap_8
XFILLER_45_76 vpwr vgnd scs8hd_fill_2
XFILLER_61_97 vpwr vgnd scs8hd_fill_2
XFILLER_6_48 vgnd vpwr scs8hd_fill_1
XFILLER_6_15 vgnd vpwr scs8hd_decap_12
XANTENNA_mux_right_ipin_7.mux_l1_in_0_.TGATE_1_.scs8hd_ebufn_2_A mux_right_ipin_7.INVTX1_1_.scs8hd_inv_1/Y
+ vgnd vpwr scs8hd_diode_2
XFILLER_20_7 vpwr vgnd scs8hd_fill_2
Xmux_right_ipin_5.mux_l1_in_1_.TGATE_0_.scs8hd_ebufn_2 mux_right_ipin_5.INVTX1_3_.scs8hd_inv_1/Y
+ mem_right_ipin_5.LATCH_0_.latch/Q mux_right_ipin_5.mux_l1_in_1_.TGATE_0_.scs8hd_ebufn_2/Z
+ vgnd vpwr scs8hd_ebufn_2
XANTENNA__157__A address[1] vgnd vpwr scs8hd_diode_2
XANTENNA_mux_right_ipin_3.mux_l1_in_0_.TGATE_1_.scs8hd_ebufn_2_TEB mem_right_ipin_3.LATCH_1_.latch/Q
+ vgnd vpwr scs8hd_diode_2
Xmem_right_ipin_1.LATCH_0_.latch data_in mem_right_ipin_1.LATCH_0_.latch/Q _089_/Y
+ vgnd vpwr scs8hd_lpflow_inputisolatch_1
XFILLER_25_123 vgnd vpwr scs8hd_decap_4
XFILLER_15_57 vpwr vgnd scs8hd_fill_2
XFILLER_15_79 vpwr vgnd scs8hd_fill_2
XFILLER_25_145 vgnd vpwr scs8hd_fill_1
XANTENNA__067__A _066_/X vgnd vpwr scs8hd_diode_2
XFILLER_31_12 vpwr vgnd scs8hd_fill_2
XFILLER_56_64 vgnd vpwr scs8hd_fill_1
XPHY_151 vgnd vpwr scs8hd_tapvpwrvgnd_1
XPHY_140 vgnd vpwr scs8hd_tapvpwrvgnd_1
XPHY_162 vgnd vpwr scs8hd_tapvpwrvgnd_1
XPHY_173 vgnd vpwr scs8hd_tapvpwrvgnd_1
XPHY_184 vgnd vpwr scs8hd_tapvpwrvgnd_1
XPHY_195 vgnd vpwr scs8hd_tapvpwrvgnd_1
XANTENNA__143__C _143_/C vgnd vpwr scs8hd_diode_2
Xmux_left_ipin_0.mux_l1_in_1_.TGATE_1_.scs8hd_ebufn_2 mux_left_ipin_0.INVTX1_4_.scs8hd_inv_1/Y
+ mem_left_ipin_0.LATCH_1_.latch/Q mux_left_ipin_0.mux_l2_in_0_.TGATE_1_.scs8hd_ebufn_2/A
+ vgnd vpwr scs8hd_ebufn_2
Xmem_right_ipin_3.LATCH_3_.latch data_in mem_right_ipin_3.LATCH_3_.latch/Q _106_/Y
+ vgnd vpwr scs8hd_lpflow_inputisolatch_1
XFILLER_7_80 vgnd vpwr scs8hd_decap_4
XANTENNA_mux_right_ipin_6.mux_l1_in_1_.TGATE_1_.scs8hd_ebufn_2_TEB mem_right_ipin_6.LATCH_1_.latch/Q
+ vgnd vpwr scs8hd_diode_2
XFILLER_26_23 vpwr vgnd scs8hd_fill_2
XFILLER_26_89 vgnd vpwr scs8hd_decap_3
XFILLER_42_11 vgnd vpwr scs8hd_decap_3
XFILLER_59_3 vgnd vpwr scs8hd_decap_12
XANTENNA__154__B address[6] vgnd vpwr scs8hd_diode_2
XANTENNA__064__B _064_/B vgnd vpwr scs8hd_diode_2
XANTENNA__080__A _117_/A vgnd vpwr scs8hd_diode_2
Xmux_right_ipin_5.INVTX1_3_.scs8hd_inv_1 chany_top_in[6] mux_right_ipin_5.INVTX1_3_.scs8hd_inv_1/Y
+ vgnd vpwr scs8hd_inv_1
XFILLER_53_21 vgnd vpwr scs8hd_fill_1
XANTENNA_mem_right_ipin_6.LATCH_0_.latch_SLEEPB _134_/Y vgnd vpwr scs8hd_diode_2
XANTENNA_mux_left_ipin_0.mux_l1_in_1_.TGATE_0_.scs8hd_ebufn_2_TEB mem_left_ipin_0.LATCH_0_.latch/Q
+ vgnd vpwr scs8hd_diode_2
XFILLER_5_111 vgnd vpwr scs8hd_decap_8
XANTENNA_mux_right_ipin_1.mux_l1_in_1_.TGATE_1_.scs8hd_ebufn_2_TEB mem_right_ipin_1.LATCH_1_.latch/Q
+ vgnd vpwr scs8hd_diode_2
XANTENNA__149__B _147_/Y vgnd vpwr scs8hd_diode_2
XANTENNA__165__A _164_/X vgnd vpwr scs8hd_diode_2
XANTENNA__075__A _166_/B vgnd vpwr scs8hd_diode_2
XFILLER_23_79 vgnd vpwr scs8hd_decap_3
XFILLER_48_32 vpwr vgnd scs8hd_fill_2
XFILLER_2_125 vgnd vpwr scs8hd_decap_12
XFILLER_48_87 vgnd vpwr scs8hd_decap_4
XFILLER_64_75 vgnd vpwr scs8hd_decap_12
XFILLER_9_15 vgnd vpwr scs8hd_decap_4
X_187_ chany_top_in[1] chany_bottom_out[1] vgnd vpwr scs8hd_buf_2
XFILLER_13_90 vpwr vgnd scs8hd_fill_2
XANTENNA__135__D _101_/X vgnd vpwr scs8hd_diode_2
XANTENNA_mux_right_ipin_5.mux_l1_in_0_.TGATE_0_.scs8hd_ebufn_2_TEB mem_right_ipin_5.LATCH_0_.latch/Q
+ vgnd vpwr scs8hd_diode_2
XANTENNA_mux_right_ipin_5.tap_buf4_0_.scs8hd_inv_1_A mux_right_ipin_5.tap_buf4_0_.scs8hd_inv_1/A
+ vgnd vpwr scs8hd_diode_2
Xmem_left_ipin_0.LATCH_4_.latch data_in mem_left_ipin_0.LATCH_4_.latch/Q _159_/Y vgnd
+ vpwr scs8hd_lpflow_inputisolatch_1
XFILLER_55_143 vgnd vpwr scs8hd_decap_3
XFILLER_55_121 vgnd vpwr scs8hd_fill_1
XFILLER_34_23 vpwr vgnd scs8hd_fill_2
X_110_ _118_/A address[3] _118_/C _111_/A vgnd vpwr scs8hd_or3_4
XFILLER_34_45 vpwr vgnd scs8hd_fill_2
XFILLER_50_55 vgnd vpwr scs8hd_decap_6
XFILLER_59_53 vpwr vgnd scs8hd_fill_2
XFILLER_61_135 vgnd vpwr scs8hd_decap_8
XFILLER_61_113 vgnd vpwr scs8hd_decap_8
XFILLER_46_110 vpwr vgnd scs8hd_fill_2
XFILLER_41_3 vgnd vpwr scs8hd_decap_12
XFILLER_37_143 vgnd vpwr scs8hd_decap_3
XFILLER_52_113 vgnd vpwr scs8hd_decap_12
XFILLER_52_102 vpwr vgnd scs8hd_fill_2
XANTENNA__072__B _069_/X vgnd vpwr scs8hd_diode_2
XANTENNA_mux_right_ipin_1.INVTX1_4_.scs8hd_inv_1_A chany_bottom_in[7] vgnd vpwr scs8hd_diode_2
XANTENNA_mux_right_ipin_4.mux_l1_in_1_.TGATE_2_.scs8hd_ebufn_2_A mux_right_ipin_4.INVTX1_5_.scs8hd_inv_1/Y
+ vgnd vpwr scs8hd_diode_2
XANTENNA_mux_right_ipin_0.mux_l1_in_0_.TGATE_0_.scs8hd_ebufn_2_TEB mem_right_ipin_0.LATCH_0_.latch/Q
+ vgnd vpwr scs8hd_diode_2
XFILLER_20_69 vgnd vpwr scs8hd_decap_6
XFILLER_29_12 vpwr vgnd scs8hd_fill_2
XFILLER_29_78 vgnd vpwr scs8hd_decap_3
XFILLER_45_55 vpwr vgnd scs8hd_fill_2
XFILLER_43_135 vgnd vpwr scs8hd_decap_8
XFILLER_61_65 vpwr vgnd scs8hd_fill_2
XFILLER_6_38 vpwr vgnd scs8hd_fill_2
XFILLER_6_27 vgnd vpwr scs8hd_decap_4
XANTENNA_mem_right_ipin_4.LATCH_1_.latch_SLEEPB _116_/Y vgnd vpwr scs8hd_diode_2
XFILLER_19_121 vgnd vpwr scs8hd_fill_1
XFILLER_19_143 vgnd vpwr scs8hd_decap_3
XANTENNA_mux_right_ipin_5.INVTX1_5_.scs8hd_inv_1_A chany_top_in[7] vgnd vpwr scs8hd_diode_2
XANTENNA__157__B _147_/Y vgnd vpwr scs8hd_diode_2
XFILLER_34_102 vgnd vpwr scs8hd_decap_12
XFILLER_25_102 vpwr vgnd scs8hd_fill_2
XFILLER_25_113 vpwr vgnd scs8hd_fill_2
XANTENNA__083__A _083_/A vgnd vpwr scs8hd_diode_2
XFILLER_40_105 vgnd vpwr scs8hd_decap_12
XFILLER_15_36 vpwr vgnd scs8hd_fill_2
Xmem_right_ipin_6.LATCH_2_.latch data_in mem_right_ipin_6.LATCH_2_.latch/Q _132_/Y
+ vgnd vpwr scs8hd_lpflow_inputisolatch_1
XFILLER_56_32 vgnd vpwr scs8hd_decap_6
XFILLER_56_98 vgnd vpwr scs8hd_decap_12
XFILLER_56_76 vgnd vpwr scs8hd_decap_4
XPHY_152 vgnd vpwr scs8hd_tapvpwrvgnd_1
XPHY_141 vgnd vpwr scs8hd_tapvpwrvgnd_1
XPHY_130 vgnd vpwr scs8hd_tapvpwrvgnd_1
XANTENNA_mux_right_ipin_3.mux_l1_in_1_.TGATE_0_.scs8hd_ebufn_2_TEB mem_right_ipin_3.LATCH_0_.latch/Q
+ vgnd vpwr scs8hd_diode_2
XFILLER_16_102 vpwr vgnd scs8hd_fill_2
XFILLER_31_105 vgnd vpwr scs8hd_decap_12
XPHY_163 vgnd vpwr scs8hd_tapvpwrvgnd_1
XPHY_174 vgnd vpwr scs8hd_tapvpwrvgnd_1
XPHY_185 vgnd vpwr scs8hd_tapvpwrvgnd_1
XPHY_196 vgnd vpwr scs8hd_tapvpwrvgnd_1
XANTENNA__168__A _167_/X vgnd vpwr scs8hd_diode_2
XANTENNA__078__A _088_/A vgnd vpwr scs8hd_diode_2
XFILLER_26_46 vpwr vgnd scs8hd_fill_2
XFILLER_42_23 vpwr vgnd scs8hd_fill_2
XANTENNA__154__C _154_/C vgnd vpwr scs8hd_diode_2
XANTENNA_mux_right_ipin_0.mux_l1_in_1_.TGATE_0_.scs8hd_ebufn_2_A mux_right_ipin_0.INVTX1_3_.scs8hd_inv_1/Y
+ vgnd vpwr scs8hd_diode_2
XFILLER_12_15 vgnd vpwr scs8hd_decap_4
XANTENNA__080__B _069_/X vgnd vpwr scs8hd_diode_2
XFILLER_53_66 vpwr vgnd scs8hd_fill_2
XFILLER_53_33 vpwr vgnd scs8hd_fill_2
XFILLER_5_123 vgnd vpwr scs8hd_decap_12
Xmem_left_ipin_1.LATCH_0_.latch data_in _146_/A _144_/Y vgnd vpwr scs8hd_lpflow_inputisolatch_1
XANTENNA_mux_right_ipin_5.mux_l2_in_0_.TGATE_2_.scs8hd_ebufn_2_A _177_/HI vgnd vpwr
+ scs8hd_diode_2
XANTENNA_mem_right_ipin_2.LATCH_4_.latch_D data_in vgnd vpwr scs8hd_diode_2
XANTENNA__149__C _143_/C vgnd vpwr scs8hd_diode_2
XANTENNA_mem_right_ipin_3.LATCH_2_.latch_D data_in vgnd vpwr scs8hd_diode_2
XANTENNA__181__A chany_top_in[7] vgnd vpwr scs8hd_diode_2
XANTENNA_mem_right_ipin_2.LATCH_2_.latch_SLEEPB _096_/Y vgnd vpwr scs8hd_diode_2
XFILLER_4_82 vgnd vpwr scs8hd_decap_8
XFILLER_23_14 vpwr vgnd scs8hd_fill_2
XANTENNA_mem_right_ipin_4.LATCH_0_.latch_D data_in vgnd vpwr scs8hd_diode_2
XFILLER_23_58 vgnd vpwr scs8hd_decap_3
XANTENNA_mux_left_ipin_0.INVTX1_3_.scs8hd_inv_1_A chany_top_in[4] vgnd vpwr scs8hd_diode_2
XANTENNA__091__A _091_/A vgnd vpwr scs8hd_diode_2
XFILLER_48_66 vpwr vgnd scs8hd_fill_2
XFILLER_2_137 vgnd vpwr scs8hd_decap_8
XFILLER_64_87 vgnd vpwr scs8hd_decap_6
XFILLER_64_32 vgnd vpwr scs8hd_decap_12
Xmux_right_ipin_4.mux_l1_in_1_.TGATE_0_.scs8hd_ebufn_2 mux_right_ipin_4.INVTX1_3_.scs8hd_inv_1/Y
+ mem_right_ipin_4.LATCH_0_.latch/Q mux_right_ipin_4.mux_l2_in_0_.TGATE_1_.scs8hd_ebufn_2/A
+ vgnd vpwr scs8hd_ebufn_2
XANTENNA_mux_right_ipin_1.mux_l1_in_0_.TGATE_2_.scs8hd_ebufn_2_A mux_right_ipin_1.INVTX1_2_.scs8hd_inv_1/Y
+ vgnd vpwr scs8hd_diode_2
XFILLER_9_38 vpwr vgnd scs8hd_fill_2
X_186_ chany_top_in[2] chany_bottom_out[2] vgnd vpwr scs8hd_buf_2
Xmux_right_ipin_3.INVTX1_3_.scs8hd_inv_1 chany_top_in[4] mux_right_ipin_3.INVTX1_3_.scs8hd_inv_1/Y
+ vgnd vpwr scs8hd_inv_1
XFILLER_36_6 vpwr vgnd scs8hd_fill_2
XANTENNA__086__A _086_/A vgnd vpwr scs8hd_diode_2
XFILLER_34_68 vpwr vgnd scs8hd_fill_2
XFILLER_1_3 vgnd vpwr scs8hd_decap_12
XFILLER_59_76 vpwr vgnd scs8hd_fill_2
XANTENNA_mux_right_ipin_3.INVTX1_2_.scs8hd_inv_1_A chany_bottom_in[4] vgnd vpwr scs8hd_diode_2
X_169_ _156_/B _169_/B _169_/Y vgnd vpwr scs8hd_nor2_4
XFILLER_52_125 vgnd vpwr scs8hd_decap_12
XANTENNA_mux_right_ipin_7.INVTX1_3_.scs8hd_inv_1_A chany_top_in[4] vgnd vpwr scs8hd_diode_2
XANTENNA_mem_left_ipin_0.LATCH_5_.latch_D data_in vgnd vpwr scs8hd_diode_2
XFILLER_29_46 vpwr vgnd scs8hd_fill_2
XFILLER_29_57 vpwr vgnd scs8hd_fill_2
XANTENNA_mux_right_ipin_1.mux_l2_in_0_.TGATE_0_.scs8hd_ebufn_2_A mux_right_ipin_1.mux_l2_in_0_.TGATE_0_.scs8hd_ebufn_2/A
+ vgnd vpwr scs8hd_diode_2
XFILLER_45_89 vpwr vgnd scs8hd_fill_2
XFILLER_45_34 vpwr vgnd scs8hd_fill_2
XANTENNA_mem_right_ipin_7.LATCH_4_.latch_D data_in vgnd vpwr scs8hd_diode_2
XFILLER_34_114 vgnd vpwr scs8hd_decap_12
XANTENNA__157__C address[0] vgnd vpwr scs8hd_diode_2
XFILLER_40_117 vgnd vpwr scs8hd_decap_12
XFILLER_31_36 vpwr vgnd scs8hd_fill_2
XFILLER_31_58 vgnd vpwr scs8hd_decap_3
XANTENNA_mem_right_ipin_0.LATCH_3_.latch_SLEEPB _074_/Y vgnd vpwr scs8hd_diode_2
XFILLER_56_55 vgnd vpwr scs8hd_decap_3
XPHY_120 vgnd vpwr scs8hd_decap_3
XPHY_142 vgnd vpwr scs8hd_tapvpwrvgnd_1
XPHY_131 vgnd vpwr scs8hd_tapvpwrvgnd_1
XPHY_153 vgnd vpwr scs8hd_tapvpwrvgnd_1
XPHY_164 vgnd vpwr scs8hd_tapvpwrvgnd_1
XPHY_175 vgnd vpwr scs8hd_tapvpwrvgnd_1
XFILLER_31_117 vgnd vpwr scs8hd_decap_4
XPHY_186 vgnd vpwr scs8hd_tapvpwrvgnd_1
XPHY_197 vgnd vpwr scs8hd_tapvpwrvgnd_1
XPHY_0 vgnd vpwr scs8hd_decap_3
XFILLER_22_106 vgnd vpwr scs8hd_decap_12
XANTENNA__184__A chany_top_in[4] vgnd vpwr scs8hd_diode_2
XANTENNA__078__B _069_/X vgnd vpwr scs8hd_diode_2
XANTENNA__094__A _085_/A vgnd vpwr scs8hd_diode_2
XFILLER_3_29 vpwr vgnd scs8hd_fill_2
Xmux_left_ipin_1.mux_l1_in_0_.TGATE_0_.scs8hd_ebufn_2 mux_left_ipin_1.INVTX1_0_.scs8hd_inv_1/Y
+ _146_/A mux_left_ipin_1.mux_l1_in_0_.TGATE_0_.scs8hd_ebufn_2/Z vgnd vpwr scs8hd_ebufn_2
XANTENNA__089__A _117_/A vgnd vpwr scs8hd_diode_2
XFILLER_37_35 vgnd vpwr scs8hd_decap_4
XFILLER_37_57 vpwr vgnd scs8hd_fill_2
XFILLER_37_79 vpwr vgnd scs8hd_fill_2
XFILLER_53_89 vgnd vpwr scs8hd_decap_4
XFILLER_53_56 vgnd vpwr scs8hd_decap_4
XFILLER_5_135 vgnd vpwr scs8hd_decap_8
XFILLER_64_3 vgnd vpwr scs8hd_decap_12
XFILLER_4_61 vpwr vgnd scs8hd_fill_2
XFILLER_23_37 vpwr vgnd scs8hd_fill_2
XANTENNA__091__B address[6] vgnd vpwr scs8hd_diode_2
XFILLER_48_23 vgnd vpwr scs8hd_decap_8
XFILLER_64_44 vgnd vpwr scs8hd_decap_12
X_185_ chany_top_in[3] chany_bottom_out[3] vgnd vpwr scs8hd_buf_2
XFILLER_13_81 vpwr vgnd scs8hd_fill_2
XFILLER_64_145 vgnd vpwr scs8hd_fill_1
XANTENNA__192__A chany_bottom_in[5] vgnd vpwr scs8hd_diode_2
XANTENNA_mux_right_ipin_5.INVTX1_0_.scs8hd_inv_1_A chany_bottom_in[2] vgnd vpwr scs8hd_diode_2
XFILLER_55_123 vgnd vpwr scs8hd_decap_12
XANTENNA__086__B _084_/B vgnd vpwr scs8hd_diode_2
XANTENNA_mux_right_ipin_6.mux_l2_in_0_.TGATE_2_.scs8hd_ebufn_2_TEB mem_right_ipin_6.LATCH_5_.latch/Q
+ vgnd vpwr scs8hd_diode_2
Xmux_right_ipin_7.mux_l2_in_0_.TGATE_0_.scs8hd_ebufn_2 mux_right_ipin_7.mux_l1_in_0_.TGATE_2_.scs8hd_ebufn_2/Z
+ mem_right_ipin_7.LATCH_3_.latch/Q mux_right_ipin_7.tap_buf4_0_.scs8hd_inv_1/A vgnd
+ vpwr scs8hd_ebufn_2
X_168_ _167_/X _169_/B vgnd vpwr scs8hd_buf_1
XFILLER_24_80 vgnd vpwr scs8hd_decap_3
XFILLER_27_3 vgnd vpwr scs8hd_decap_4
X_099_ _091_/A address[6] _099_/C _118_/C vgnd vpwr scs8hd_or3_4
XFILLER_52_137 vgnd vpwr scs8hd_decap_8
XANTENNA__187__A chany_top_in[1] vgnd vpwr scs8hd_diode_2
XFILLER_37_123 vgnd vpwr scs8hd_decap_12
Xmux_right_ipin_1.INVTX1_3_.scs8hd_inv_1 chany_top_in[3] mux_right_ipin_1.INVTX1_3_.scs8hd_inv_1/Y
+ vgnd vpwr scs8hd_inv_1
XANTENNA_mem_left_ipin_1.LATCH_0_.latch_SLEEPB _144_/Y vgnd vpwr scs8hd_diode_2
XANTENNA_mem_right_ipin_7.LATCH_2_.latch_SLEEPB _140_/Y vgnd vpwr scs8hd_diode_2
XFILLER_20_16 vpwr vgnd scs8hd_fill_2
XFILLER_20_27 vgnd vpwr scs8hd_decap_4
XFILLER_20_38 vpwr vgnd scs8hd_fill_2
Xmux_right_ipin_1.tap_buf4_0_.scs8hd_inv_1 mux_right_ipin_1.tap_buf4_0_.scs8hd_inv_1/A
+ left_grid_pin_2_ vgnd vpwr scs8hd_inv_1
XFILLER_28_145 vgnd vpwr scs8hd_fill_1
XANTENNA__097__A _088_/A vgnd vpwr scs8hd_diode_2
XFILLER_43_104 vpwr vgnd scs8hd_fill_2
XANTENNA_mux_right_ipin_5.mux_l1_in_1_.TGATE_2_.scs8hd_ebufn_2_A mux_right_ipin_5.INVTX1_5_.scs8hd_inv_1/Y
+ vgnd vpwr scs8hd_diode_2
XANTENNA_mux_left_ipin_0.mux_l2_in_0_.TGATE_1_.scs8hd_ebufn_2_TEB mem_left_ipin_0.LATCH_4_.latch/Q
+ vgnd vpwr scs8hd_diode_2
XFILLER_13_9 vgnd vpwr scs8hd_fill_1
XFILLER_19_123 vgnd vpwr scs8hd_decap_12