* NGSPICE file created from cby_0__1_.ext - technology: EFS8A

* Black-box entry subcircuit for scs8hd_fill_2 abstract view
.subckt scs8hd_fill_2 vpwr vgnd
.ends

* Black-box entry subcircuit for scs8hd_diode_2 abstract view
.subckt scs8hd_diode_2 DIODE vgnd vpwr
.ends

* Black-box entry subcircuit for scs8hd_inv_1 abstract view
.subckt scs8hd_inv_1 A Y vgnd vpwr
.ends

* Black-box entry subcircuit for scs8hd_decap_4 abstract view
.subckt scs8hd_decap_4 vgnd vpwr
.ends

* Black-box entry subcircuit for scs8hd_decap_12 abstract view
.subckt scs8hd_decap_12 vgnd vpwr
.ends

* Black-box entry subcircuit for scs8hd_fill_1 abstract view
.subckt scs8hd_fill_1 vgnd vpwr
.ends

* Black-box entry subcircuit for scs8hd_ebufn_2 abstract view
.subckt scs8hd_ebufn_2 A TEB Z vgnd vpwr
.ends

* Black-box entry subcircuit for scs8hd_or3_4 abstract view
.subckt scs8hd_or3_4 A B C X vgnd vpwr
.ends

* Black-box entry subcircuit for scs8hd_nor2_4 abstract view
.subckt scs8hd_nor2_4 A B Y vgnd vpwr
.ends

* Black-box entry subcircuit for scs8hd_decap_3 abstract view
.subckt scs8hd_decap_3 vgnd vpwr
.ends

* Black-box entry subcircuit for scs8hd_decap_6 abstract view
.subckt scs8hd_decap_6 vgnd vpwr
.ends

* Black-box entry subcircuit for scs8hd_lpflow_inputisolatch_1 abstract view
.subckt scs8hd_lpflow_inputisolatch_1 D Q SLEEPB vgnd vpwr
.ends

* Black-box entry subcircuit for scs8hd_decap_8 abstract view
.subckt scs8hd_decap_8 vgnd vpwr
.ends

* Black-box entry subcircuit for scs8hd_tapvpwrvgnd_1 abstract view
.subckt scs8hd_tapvpwrvgnd_1 vgnd vpwr
.ends

* Black-box entry subcircuit for scs8hd_buf_2 abstract view
.subckt scs8hd_buf_2 A X vgnd vpwr
.ends

* Black-box entry subcircuit for scs8hd_buf_1 abstract view
.subckt scs8hd_buf_1 A X vgnd vpwr
.ends

* Black-box entry subcircuit for scs8hd_inv_8 abstract view
.subckt scs8hd_inv_8 A Y vgnd vpwr
.ends

* Black-box entry subcircuit for scs8hd_nor3_4 abstract view
.subckt scs8hd_nor3_4 A B C Y vgnd vpwr
.ends

* Black-box entry subcircuit for scs8hd_conb_1 abstract view
.subckt scs8hd_conb_1 HI LO vgnd vpwr
.ends

* Black-box entry subcircuit for scs8hd_or2_4 abstract view
.subckt scs8hd_or2_4 A B X vgnd vpwr
.ends

* Black-box entry subcircuit for scs8hd_or4_4 abstract view
.subckt scs8hd_or4_4 A B C D X vgnd vpwr
.ends

.subckt cby_0__1_ address[0] address[1] address[2] address[3] address[4] address[5]
+ address[6] chany_bottom_in[0] chany_bottom_in[1] chany_bottom_in[2] chany_bottom_in[3]
+ chany_bottom_in[4] chany_bottom_in[5] chany_bottom_in[6] chany_bottom_in[7] chany_bottom_in[8]
+ chany_bottom_out[0] chany_bottom_out[1] chany_bottom_out[2] chany_bottom_out[3]
+ chany_bottom_out[4] chany_bottom_out[5] chany_bottom_out[6] chany_bottom_out[7]
+ chany_bottom_out[8] chany_top_in[0] chany_top_in[1] chany_top_in[2] chany_top_in[3]
+ chany_top_in[4] chany_top_in[5] chany_top_in[6] chany_top_in[7] chany_top_in[8]
+ chany_top_out[0] chany_top_out[1] chany_top_out[2] chany_top_out[3] chany_top_out[4]
+ chany_top_out[5] chany_top_out[6] chany_top_out[7] chany_top_out[8] data_in enable
+ left_grid_pin_0_ left_grid_pin_10_ left_grid_pin_12_ left_grid_pin_14_ left_grid_pin_2_
+ left_grid_pin_4_ left_grid_pin_6_ left_grid_pin_8_ right_grid_pin_3_ right_grid_pin_7_
+ vpwr vgnd
XFILLER_26_41 vpwr vgnd scs8hd_fill_2
XANTENNA__113__B _116_/B vgnd vpwr scs8hd_diode_2
Xmux_right_ipin_4.INVTX1_2_.scs8hd_inv_1 chany_bottom_in[5] mux_right_ipin_4.INVTX1_2_.scs8hd_inv_1/Y
+ vgnd vpwr scs8hd_inv_1
XANTENNA_mux_right_ipin_6.mux_l2_in_0_.TGATE_1_.scs8hd_ebufn_2_TEB mem_right_ipin_6.LATCH_4_.latch/Q
+ vgnd vpwr scs8hd_diode_2
XFILLER_47_29 vgnd vpwr scs8hd_decap_4
XFILLER_63_39 vgnd vpwr scs8hd_decap_12
XFILLER_10_125 vgnd vpwr scs8hd_decap_12
XFILLER_37_40 vpwr vgnd scs8hd_fill_2
XFILLER_37_95 vgnd vpwr scs8hd_fill_1
XANTENNA__108__B _108_/B vgnd vpwr scs8hd_diode_2
XANTENNA__124__A _124_/A vgnd vpwr scs8hd_diode_2
Xmux_right_ipin_0.mux_l1_in_0_.TGATE_2_.scs8hd_ebufn_2 mux_right_ipin_0.INVTX1_2_.scs8hd_inv_1/Y
+ mem_right_ipin_0.LATCH_2_.latch/Q mux_right_ipin_0.mux_l2_in_0_.TGATE_0_.scs8hd_ebufn_2/A
+ vgnd vpwr scs8hd_ebufn_2
XANTENNA_mux_left_ipin_0.mux_l2_in_0_.TGATE_0_.scs8hd_ebufn_2_TEB mem_left_ipin_0.LATCH_3_.latch/Q
+ vgnd vpwr scs8hd_diode_2
XANTENNA_mem_left_ipin_0.LATCH_1_.latch_SLEEPB _169_/Y vgnd vpwr scs8hd_diode_2
XANTENNA_mem_right_ipin_6.LATCH_3_.latch_SLEEPB _131_/Y vgnd vpwr scs8hd_diode_2
XANTENNA_mux_right_ipin_1.mux_l2_in_0_.TGATE_1_.scs8hd_ebufn_2_TEB mem_right_ipin_1.LATCH_4_.latch/Q
+ vgnd vpwr scs8hd_diode_2
X_062_ address[1] address[2] address[0] _062_/X vgnd vpwr scs8hd_or3_4
XFILLER_23_53 vpwr vgnd scs8hd_fill_2
XFILLER_23_86 vpwr vgnd scs8hd_fill_2
X_131_ _139_/A _131_/B _131_/Y vgnd vpwr scs8hd_nor2_4
XFILLER_48_61 vpwr vgnd scs8hd_fill_2
XFILLER_2_143 vgnd vpwr scs8hd_decap_3
XANTENNA__110__C _102_/A vgnd vpwr scs8hd_diode_2
XFILLER_9_88 vgnd vpwr scs8hd_decap_4
XANTENNA__119__A _119_/A vgnd vpwr scs8hd_diode_2
XFILLER_50_3 vgnd vpwr scs8hd_decap_12
XFILLER_56_117 vgnd vpwr scs8hd_decap_12
XFILLER_18_64 vgnd vpwr scs8hd_decap_4
Xmux_right_ipin_7.mux_l1_in_1_.TGATE_0_.scs8hd_ebufn_2 mux_right_ipin_7.INVTX1_3_.scs8hd_inv_1/Y
+ mem_right_ipin_7.LATCH_0_.latch/Q mux_right_ipin_7.mux_l2_in_0_.TGATE_1_.scs8hd_ebufn_2/A
+ vgnd vpwr scs8hd_ebufn_2
XFILLER_34_30 vgnd vpwr scs8hd_fill_1
XFILLER_34_85 vgnd vpwr scs8hd_decap_6
X_114_ _122_/A _116_/B _114_/Y vgnd vpwr scs8hd_nor2_4
XFILLER_59_82 vpwr vgnd scs8hd_fill_2
XFILLER_38_106 vgnd vpwr scs8hd_decap_4
XANTENNA__121__B _123_/B vgnd vpwr scs8hd_diode_2
XFILLER_39_19 vpwr vgnd scs8hd_fill_2
XFILLER_44_109 vgnd vpwr scs8hd_decap_12
XFILLER_29_117 vpwr vgnd scs8hd_fill_2
XANTENNA_mux_right_ipin_2.mux_l1_in_1_.TGATE_2_.scs8hd_ebufn_2_A mux_right_ipin_2.INVTX1_5_.scs8hd_inv_1/Y
+ vgnd vpwr scs8hd_diode_2
Xmem_right_ipin_2.LATCH_1_.latch data_in mem_right_ipin_2.LATCH_1_.latch/Q _097_/Y
+ vgnd vpwr scs8hd_lpflow_inputisolatch_1
XFILLER_20_10 vpwr vgnd scs8hd_fill_2
XFILLER_20_43 vpwr vgnd scs8hd_fill_2
XFILLER_29_30 vpwr vgnd scs8hd_fill_2
XFILLER_45_62 vpwr vgnd scs8hd_fill_2
XANTENNA__116__B _116_/B vgnd vpwr scs8hd_diode_2
XFILLER_6_23 vpwr vgnd scs8hd_fill_2
XFILLER_6_78 vgnd vpwr scs8hd_fill_1
XFILLER_6_45 vgnd vpwr scs8hd_decap_8
XANTENNA__132__A _140_/A vgnd vpwr scs8hd_diode_2
XFILLER_13_3 vgnd vpwr scs8hd_decap_4
Xmem_right_ipin_4.LATCH_4_.latch data_in mem_right_ipin_4.LATCH_4_.latch/Q _113_/Y
+ vgnd vpwr scs8hd_lpflow_inputisolatch_1
XFILLER_17_109 vgnd vpwr scs8hd_fill_1
XANTENNA_mux_right_ipin_2.INVTX1_5_.scs8hd_inv_1_A chany_top_in[8] vgnd vpwr scs8hd_diode_2
XFILLER_31_42 vpwr vgnd scs8hd_fill_2
XFILLER_31_53 vpwr vgnd scs8hd_fill_2
XANTENNA_mem_right_ipin_4.LATCH_4_.latch_SLEEPB _113_/Y vgnd vpwr scs8hd_diode_2
XANTENNA__127__A address[5] vgnd vpwr scs8hd_diode_2
XPHY_170 vgnd vpwr scs8hd_tapvpwrvgnd_1
XFILLER_31_134 vgnd vpwr scs8hd_decap_12
XPHY_181 vgnd vpwr scs8hd_tapvpwrvgnd_1
XPHY_192 vgnd vpwr scs8hd_tapvpwrvgnd_1
XANTENNA_mux_right_ipin_3.mux_l2_in_0_.TGATE_0_.scs8hd_ebufn_2_TEB mem_right_ipin_3.LATCH_3_.latch/Q
+ vgnd vpwr scs8hd_diode_2
XFILLER_9_105 vgnd vpwr scs8hd_decap_4
XFILLER_13_112 vgnd vpwr scs8hd_decap_8
XFILLER_13_123 vpwr vgnd scs8hd_fill_2
XFILLER_13_145 vgnd vpwr scs8hd_fill_1
XANTENNA_mux_left_ipin_0.mux_l1_in_1_.TGATE_0_.scs8hd_ebufn_2_A mux_left_ipin_0.INVTX1_3_.scs8hd_inv_1/Y
+ vgnd vpwr scs8hd_diode_2
XFILLER_26_64 vpwr vgnd scs8hd_fill_2
XFILLER_26_75 vpwr vgnd scs8hd_fill_2
XFILLER_26_86 vgnd vpwr scs8hd_decap_3
XFILLER_42_85 vgnd vpwr scs8hd_decap_6
XFILLER_42_41 vpwr vgnd scs8hd_fill_2
XFILLER_3_57 vpwr vgnd scs8hd_fill_2
XFILLER_10_137 vgnd vpwr scs8hd_decap_8
XFILLER_53_62 vgnd vpwr scs8hd_decap_12
XFILLER_53_51 vgnd vpwr scs8hd_decap_8
XANTENNA_mux_right_ipin_3.mux_l2_in_0_.TGATE_2_.scs8hd_ebufn_2_A _175_/HI vgnd vpwr
+ scs8hd_diode_2
XANTENNA__124__B _123_/B vgnd vpwr scs8hd_diode_2
XANTENNA__140__A _140_/A vgnd vpwr scs8hd_diode_2
Xmux_right_ipin_2.INVTX1_2_.scs8hd_inv_1 chany_bottom_in[4] mux_right_ipin_2.INVTX1_2_.scs8hd_inv_1/Y
+ vgnd vpwr scs8hd_inv_1
XFILLER_23_32 vgnd vpwr scs8hd_fill_1
X_130_ _138_/A _131_/B _130_/Y vgnd vpwr scs8hd_nor2_4
XFILLER_23_65 vpwr vgnd scs8hd_fill_2
XFILLER_48_40 vgnd vpwr scs8hd_fill_1
XFILLER_64_94 vgnd vpwr scs8hd_decap_12
XFILLER_0_47 vpwr vgnd scs8hd_fill_2
XFILLER_0_58 vpwr vgnd scs8hd_fill_2
XFILLER_9_12 vpwr vgnd scs8hd_fill_2
XANTENNA_mem_right_ipin_2.LATCH_5_.latch_SLEEPB _093_/Y vgnd vpwr scs8hd_diode_2
XANTENNA__135__A address[5] vgnd vpwr scs8hd_diode_2
XFILLER_43_3 vpwr vgnd scs8hd_fill_2
XFILLER_56_129 vgnd vpwr scs8hd_decap_12
XANTENNA_mem_right_ipin_0.LATCH_5_.latch_D data_in vgnd vpwr scs8hd_diode_2
Xmux_left_ipin_1.mux_l2_in_0_.TGATE_0_.scs8hd_ebufn_2 mux_left_ipin_1.mux_l2_in_0_.TGATE_0_.scs8hd_ebufn_2/A
+ _145_/A mux_left_ipin_1.tap_buf4_0_.scs8hd_inv_1/A vgnd vpwr scs8hd_ebufn_2
XFILLER_18_21 vpwr vgnd scs8hd_fill_2
XFILLER_18_43 vpwr vgnd scs8hd_fill_2
XANTENNA_mem_right_ipin_1.LATCH_3_.latch_D data_in vgnd vpwr scs8hd_diode_2
X_113_ _121_/A _116_/B _113_/Y vgnd vpwr scs8hd_nor2_4
XFILLER_34_64 vpwr vgnd scs8hd_fill_2
Xmem_right_ipin_5.LATCH_0_.latch data_in mem_right_ipin_5.LATCH_0_.latch/Q _125_/Y
+ vgnd vpwr scs8hd_lpflow_inputisolatch_1
XANTENNA_mem_right_ipin_2.LATCH_1_.latch_D data_in vgnd vpwr scs8hd_diode_2
XFILLER_61_143 vgnd vpwr scs8hd_decap_3
XFILLER_61_110 vgnd vpwr scs8hd_decap_12
XANTENNA_mux_left_ipin_1.mux_l2_in_0_.TGATE_0_.scs8hd_ebufn_2_A mux_left_ipin_1.mux_l2_in_0_.TGATE_0_.scs8hd_ebufn_2/A
+ vgnd vpwr scs8hd_diode_2
XANTENNA_mux_right_ipin_0.INVTX1_2_.scs8hd_inv_1_A chany_bottom_in[2] vgnd vpwr scs8hd_diode_2
XFILLER_20_77 vpwr vgnd scs8hd_fill_2
XFILLER_45_85 vpwr vgnd scs8hd_fill_2
XFILLER_43_143 vgnd vpwr scs8hd_decap_3
XFILLER_43_121 vgnd vpwr scs8hd_fill_1
XFILLER_61_62 vgnd vpwr scs8hd_decap_12
XFILLER_61_51 vgnd vpwr scs8hd_decap_8
Xmem_right_ipin_7.LATCH_3_.latch data_in mem_right_ipin_7.LATCH_3_.latch/Q _139_/Y
+ vgnd vpwr scs8hd_lpflow_inputisolatch_1
XFILLER_6_57 vgnd vpwr scs8hd_decap_4
XANTENNA_mux_right_ipin_4.INVTX1_3_.scs8hd_inv_1_A chany_top_in[5] vgnd vpwr scs8hd_diode_2
XANTENNA__132__B _131_/B vgnd vpwr scs8hd_diode_2
XANTENNA_mux_right_ipin_6.mux_l1_in_0_.TGATE_1_.scs8hd_ebufn_2_A mux_right_ipin_6.INVTX1_1_.scs8hd_inv_1/Y
+ vgnd vpwr scs8hd_diode_2
XFILLER_40_102 vgnd vpwr scs8hd_decap_8
XFILLER_25_121 vgnd vpwr scs8hd_fill_1
XFILLER_31_21 vpwr vgnd scs8hd_fill_2
XANTENNA__127__B _127_/B vgnd vpwr scs8hd_diode_2
XPHY_160 vgnd vpwr scs8hd_tapvpwrvgnd_1
XPHY_171 vgnd vpwr scs8hd_tapvpwrvgnd_1
XPHY_182 vgnd vpwr scs8hd_tapvpwrvgnd_1
XPHY_193 vgnd vpwr scs8hd_tapvpwrvgnd_1
XFILLER_31_113 vpwr vgnd scs8hd_fill_2
XANTENNA__143__A _143_/A vgnd vpwr scs8hd_diode_2
XFILLER_22_102 vgnd vpwr scs8hd_decap_8
XANTENNA_mem_right_ipin_5.LATCH_5_.latch_D data_in vgnd vpwr scs8hd_diode_2
XANTENNA_mem_left_ipin_0.LATCH_2_.latch_D data_in vgnd vpwr scs8hd_diode_2
XANTENNA_mem_left_ipin_1.LATCH_0_.latch_D data_in vgnd vpwr scs8hd_diode_2
XANTENNA_mem_right_ipin_6.LATCH_3_.latch_D data_in vgnd vpwr scs8hd_diode_2
XFILLER_42_75 vgnd vpwr scs8hd_decap_4
XFILLER_42_64 vpwr vgnd scs8hd_fill_2
XANTENNA_mem_right_ipin_7.LATCH_1_.latch_D data_in vgnd vpwr scs8hd_diode_2
XFILLER_3_47 vpwr vgnd scs8hd_fill_2
XFILLER_3_14 vpwr vgnd scs8hd_fill_2
XANTENNA__138__A _138_/A vgnd vpwr scs8hd_diode_2
Xmux_right_ipin_6.mux_l1_in_1_.TGATE_0_.scs8hd_ebufn_2 mux_right_ipin_6.INVTX1_3_.scs8hd_inv_1/Y
+ mem_right_ipin_6.LATCH_0_.latch/Q mux_right_ipin_6.mux_l1_in_1_.TGATE_0_.scs8hd_ebufn_2/Z
+ vgnd vpwr scs8hd_ebufn_2
XFILLER_12_45 vgnd vpwr scs8hd_fill_1
XFILLER_37_75 vpwr vgnd scs8hd_fill_2
XFILLER_37_53 vpwr vgnd scs8hd_fill_2
XFILLER_53_74 vgnd vpwr scs8hd_decap_12
XFILLER_38_6 vgnd vpwr scs8hd_decap_4
XANTENNA__140__B _142_/B vgnd vpwr scs8hd_diode_2
XANTENNA_mux_right_ipin_0.tap_buf4_0_.scs8hd_inv_1_A mux_right_ipin_0.tap_buf4_0_.scs8hd_inv_1/A
+ vgnd vpwr scs8hd_diode_2
XFILLER_23_11 vpwr vgnd scs8hd_fill_2
XFILLER_3_3 vpwr vgnd scs8hd_fill_2
XFILLER_2_101 vgnd vpwr scs8hd_decap_8
XFILLER_48_96 vgnd vpwr scs8hd_decap_3
X_189_ chany_bottom_in[8] chany_top_out[8] vgnd vpwr scs8hd_buf_2
XANTENNA__135__B _127_/B vgnd vpwr scs8hd_diode_2
XANTENNA__151__A _137_/A vgnd vpwr scs8hd_diode_2
XFILLER_47_108 vgnd vpwr scs8hd_decap_12
XFILLER_34_21 vpwr vgnd scs8hd_fill_2
XFILLER_34_43 vpwr vgnd scs8hd_fill_2
X_112_ _112_/A _116_/B _112_/Y vgnd vpwr scs8hd_nor2_4
XFILLER_59_73 vgnd vpwr scs8hd_decap_4
Xmux_right_ipin_0.INVTX1_2_.scs8hd_inv_1 chany_bottom_in[2] mux_right_ipin_0.INVTX1_2_.scs8hd_inv_1/Y
+ vgnd vpwr scs8hd_inv_1
XANTENNA_mux_right_ipin_2.INVTX1_0_.scs8hd_inv_1_A chany_bottom_in[3] vgnd vpwr scs8hd_diode_2
XANTENNA__146__A _146_/A vgnd vpwr scs8hd_diode_2
Xmux_left_ipin_1.tap_buf4_0_.scs8hd_inv_1 mux_left_ipin_1.tap_buf4_0_.scs8hd_inv_1/A
+ right_grid_pin_7_ vgnd vpwr scs8hd_inv_1
XANTENNA_mux_right_ipin_3.mux_l1_in_1_.TGATE_2_.scs8hd_ebufn_2_A mux_right_ipin_3.INVTX1_5_.scs8hd_inv_1/Y
+ vgnd vpwr scs8hd_diode_2
XANTENNA_mux_right_ipin_6.INVTX1_1_.scs8hd_inv_1_A chany_top_in[3] vgnd vpwr scs8hd_diode_2
XFILLER_20_23 vpwr vgnd scs8hd_fill_2
XFILLER_20_89 vgnd vpwr scs8hd_fill_1
XFILLER_28_130 vgnd vpwr scs8hd_decap_12
XFILLER_45_53 vpwr vgnd scs8hd_fill_2
XFILLER_61_74 vgnd vpwr scs8hd_decap_12
XFILLER_20_6 vpwr vgnd scs8hd_fill_2
XANTENNA_mem_right_ipin_7.LATCH_5_.latch_SLEEPB _137_/Y vgnd vpwr scs8hd_diode_2
XFILLER_19_130 vgnd vpwr scs8hd_decap_4
XFILLER_19_141 vgnd vpwr scs8hd_decap_4
XFILLER_40_114 vgnd vpwr scs8hd_decap_12
XANTENNA_mem_right_ipin_1.LATCH_0_.latch_SLEEPB _089_/Y vgnd vpwr scs8hd_diode_2
XFILLER_15_45 vpwr vgnd scs8hd_fill_2
XFILLER_15_56 vgnd vpwr scs8hd_decap_3
XFILLER_31_88 vpwr vgnd scs8hd_fill_2
Xmux_left_ipin_0.INVTX1_1_.scs8hd_inv_1 chany_top_in[0] mux_left_ipin_0.INVTX1_1_.scs8hd_inv_1/Y
+ vgnd vpwr scs8hd_inv_1
XANTENNA_mux_right_ipin_6.mux_l1_in_0_.TGATE_2_.scs8hd_ebufn_2_TEB mem_right_ipin_6.LATCH_2_.latch/Q
+ vgnd vpwr scs8hd_diode_2
XANTENNA__127__C _154_/C vgnd vpwr scs8hd_diode_2
XPHY_150 vgnd vpwr scs8hd_tapvpwrvgnd_1
XPHY_161 vgnd vpwr scs8hd_tapvpwrvgnd_1
XPHY_172 vgnd vpwr scs8hd_tapvpwrvgnd_1
XPHY_183 vgnd vpwr scs8hd_tapvpwrvgnd_1
XPHY_194 vgnd vpwr scs8hd_tapvpwrvgnd_1
XANTENNA__143__B _143_/B vgnd vpwr scs8hd_diode_2
Xmux_right_ipin_7.INVTX1_3_.scs8hd_inv_1 chany_top_in[4] mux_right_ipin_7.INVTX1_3_.scs8hd_inv_1/Y
+ vgnd vpwr scs8hd_inv_1
XFILLER_22_125 vpwr vgnd scs8hd_fill_2
XFILLER_26_22 vpwr vgnd scs8hd_fill_2
Xmem_right_ipin_0.LATCH_4_.latch data_in mem_right_ipin_0.LATCH_4_.latch/Q _072_/Y
+ vgnd vpwr scs8hd_lpflow_inputisolatch_1
XANTENNA__138__B _142_/B vgnd vpwr scs8hd_diode_2
XANTENNA_mux_left_ipin_0.mux_l1_in_0_.TGATE_1_.scs8hd_ebufn_2_TEB mem_left_ipin_0.LATCH_1_.latch/Q
+ vgnd vpwr scs8hd_diode_2
XANTENNA__154__A address[5] vgnd vpwr scs8hd_diode_2
XFILLER_8_140 vgnd vpwr scs8hd_decap_6
XANTENNA_mux_right_ipin_1.mux_l1_in_0_.TGATE_2_.scs8hd_ebufn_2_TEB mem_right_ipin_1.LATCH_2_.latch/Q
+ vgnd vpwr scs8hd_diode_2
Xmux_left_ipin_0.mux_l2_in_0_.TGATE_0_.scs8hd_ebufn_2 mux_left_ipin_0.mux_l1_in_0_.TGATE_2_.scs8hd_ebufn_2/Z
+ mem_left_ipin_0.LATCH_3_.latch/Q mux_left_ipin_0.tap_buf4_0_.scs8hd_inv_1/A vgnd
+ vpwr scs8hd_ebufn_2
XFILLER_10_106 vgnd vpwr scs8hd_decap_4
XFILLER_12_24 vgnd vpwr scs8hd_decap_3
XFILLER_12_68 vgnd vpwr scs8hd_fill_1
XANTENNA__064__A _169_/A vgnd vpwr scs8hd_diode_2
XFILLER_53_86 vgnd vpwr scs8hd_decap_12
XFILLER_5_121 vgnd vpwr scs8hd_fill_1
XFILLER_5_143 vgnd vpwr scs8hd_decap_3
XANTENNA_mux_right_ipin_4.mux_l2_in_0_.TGATE_2_.scs8hd_ebufn_2_A _176_/HI vgnd vpwr
+ scs8hd_diode_2
XANTENNA__149__A address[1] vgnd vpwr scs8hd_diode_2
XFILLER_59_139 vgnd vpwr scs8hd_decap_6
XANTENNA_mux_right_ipin_4.mux_l1_in_1_.TGATE_2_.scs8hd_ebufn_2_TEB mem_right_ipin_4.LATCH_2_.latch/Q
+ vgnd vpwr scs8hd_diode_2
XFILLER_2_135 vgnd vpwr scs8hd_decap_8
XFILLER_2_124 vgnd vpwr scs8hd_decap_8
XFILLER_2_113 vgnd vpwr scs8hd_decap_8
XFILLER_0_27 vpwr vgnd scs8hd_fill_2
XANTENNA_mux_right_ipin_0.mux_l1_in_0_.TGATE_2_.scs8hd_ebufn_2_A mux_right_ipin_0.INVTX1_2_.scs8hd_inv_1/Y
+ vgnd vpwr scs8hd_diode_2
XFILLER_64_63 vgnd vpwr scs8hd_decap_12
XFILLER_9_58 vgnd vpwr scs8hd_decap_3
XANTENNA__135__C _066_/C vgnd vpwr scs8hd_diode_2
X_188_ chany_top_in[0] chany_bottom_out[0] vgnd vpwr scs8hd_buf_2
XFILLER_29_3 vgnd vpwr scs8hd_decap_3
XFILLER_34_77 vpwr vgnd scs8hd_fill_2
XFILLER_50_32 vgnd vpwr scs8hd_decap_12
X_111_ _110_/X _116_/B vgnd vpwr scs8hd_buf_1
XFILLER_59_41 vpwr vgnd scs8hd_fill_2
XFILLER_61_123 vgnd vpwr scs8hd_decap_12
XANTENNA__162__A _161_/X vgnd vpwr scs8hd_diode_2
XFILLER_37_120 vpwr vgnd scs8hd_fill_2
XFILLER_29_109 vpwr vgnd scs8hd_fill_2
XFILLER_52_145 vgnd vpwr scs8hd_fill_1
XANTENNA__072__A _121_/A vgnd vpwr scs8hd_diode_2
XFILLER_29_11 vpwr vgnd scs8hd_fill_2
XFILLER_45_21 vpwr vgnd scs8hd_fill_2
XFILLER_43_123 vgnd vpwr scs8hd_decap_12
XFILLER_43_101 vgnd vpwr scs8hd_decap_12
XANTENNA_mux_right_ipin_0.mux_l2_in_0_.TGATE_0_.scs8hd_ebufn_2_A mux_right_ipin_0.mux_l2_in_0_.TGATE_0_.scs8hd_ebufn_2/A
+ vgnd vpwr scs8hd_diode_2
XFILLER_28_142 vgnd vpwr scs8hd_decap_4
XFILLER_29_88 vgnd vpwr scs8hd_decap_4
XFILLER_61_86 vgnd vpwr scs8hd_decap_12
XFILLER_45_98 vpwr vgnd scs8hd_fill_2
XANTENNA_mux_right_ipin_7.mux_l1_in_0_.TGATE_1_.scs8hd_ebufn_2_A mux_right_ipin_7.INVTX1_1_.scs8hd_inv_1/Y
+ vgnd vpwr scs8hd_diode_2
Xmux_right_ipin_5.mux_l1_in_1_.TGATE_0_.scs8hd_ebufn_2 mux_right_ipin_5.INVTX1_3_.scs8hd_inv_1/Y
+ mem_right_ipin_5.LATCH_0_.latch/Q mux_right_ipin_5.mux_l1_in_1_.TGATE_0_.scs8hd_ebufn_2/Z
+ vgnd vpwr scs8hd_ebufn_2
XANTENNA__157__A address[1] vgnd vpwr scs8hd_diode_2
XFILLER_34_145 vgnd vpwr scs8hd_fill_1
XANTENNA_mux_right_ipin_3.mux_l1_in_0_.TGATE_1_.scs8hd_ebufn_2_TEB mem_right_ipin_3.LATCH_1_.latch/Q
+ vgnd vpwr scs8hd_diode_2
Xmem_right_ipin_1.LATCH_0_.latch data_in mem_right_ipin_1.LATCH_0_.latch/Q _089_/Y
+ vgnd vpwr scs8hd_lpflow_inputisolatch_1
XFILLER_25_123 vpwr vgnd scs8hd_fill_2
XFILLER_40_126 vgnd vpwr scs8hd_decap_12
XANTENNA__067__A _066_/X vgnd vpwr scs8hd_diode_2
XFILLER_15_24 vpwr vgnd scs8hd_fill_2
XFILLER_15_79 vpwr vgnd scs8hd_fill_2
XFILLER_25_145 vgnd vpwr scs8hd_fill_1
XFILLER_16_145 vgnd vpwr scs8hd_fill_1
XPHY_140 vgnd vpwr scs8hd_tapvpwrvgnd_1
XPHY_151 vgnd vpwr scs8hd_tapvpwrvgnd_1
XPHY_162 vgnd vpwr scs8hd_tapvpwrvgnd_1
XPHY_173 vgnd vpwr scs8hd_tapvpwrvgnd_1
XPHY_184 vgnd vpwr scs8hd_tapvpwrvgnd_1
XPHY_195 vgnd vpwr scs8hd_tapvpwrvgnd_1
XFILLER_31_126 vpwr vgnd scs8hd_fill_2
XANTENNA__143__C _161_/C vgnd vpwr scs8hd_diode_2
XFILLER_11_3 vpwr vgnd scs8hd_fill_2
Xmux_left_ipin_0.mux_l1_in_1_.TGATE_1_.scs8hd_ebufn_2 mux_left_ipin_0.INVTX1_4_.scs8hd_inv_1/Y
+ mem_left_ipin_0.LATCH_1_.latch/Q mux_left_ipin_0.mux_l1_in_1_.TGATE_2_.scs8hd_ebufn_2/Z
+ vgnd vpwr scs8hd_ebufn_2
Xmem_right_ipin_3.LATCH_3_.latch data_in mem_right_ipin_3.LATCH_3_.latch/Q _106_/Y
+ vgnd vpwr scs8hd_lpflow_inputisolatch_1
XFILLER_26_45 vpwr vgnd scs8hd_fill_2
XANTENNA_mux_right_ipin_6.mux_l1_in_1_.TGATE_1_.scs8hd_ebufn_2_TEB mem_right_ipin_6.LATCH_1_.latch/Q
+ vgnd vpwr scs8hd_diode_2
XFILLER_42_11 vgnd vpwr scs8hd_fill_1
XFILLER_3_27 vpwr vgnd scs8hd_fill_2
XFILLER_59_3 vgnd vpwr scs8hd_decap_12
XANTENNA__154__B address[6] vgnd vpwr scs8hd_diode_2
XANTENNA__064__B _142_/A vgnd vpwr scs8hd_diode_2
XANTENNA__080__A _125_/A vgnd vpwr scs8hd_diode_2
XFILLER_12_58 vgnd vpwr scs8hd_decap_4
Xmux_right_ipin_5.INVTX1_3_.scs8hd_inv_1 chany_top_in[6] mux_right_ipin_5.INVTX1_3_.scs8hd_inv_1/Y
+ vgnd vpwr scs8hd_inv_1
XFILLER_37_44 vgnd vpwr scs8hd_decap_3
XFILLER_37_22 vgnd vpwr scs8hd_decap_3
XFILLER_37_11 vgnd vpwr scs8hd_fill_1
XFILLER_37_88 vgnd vpwr scs8hd_decap_4
XANTENNA_mux_left_ipin_0.mux_l1_in_1_.TGATE_0_.scs8hd_ebufn_2_TEB mem_left_ipin_0.LATCH_0_.latch/Q
+ vgnd vpwr scs8hd_diode_2
XANTENNA_mem_right_ipin_6.LATCH_0_.latch_SLEEPB _134_/Y vgnd vpwr scs8hd_diode_2
XFILLER_53_98 vgnd vpwr scs8hd_decap_12
XANTENNA_mux_right_ipin_1.mux_l1_in_1_.TGATE_1_.scs8hd_ebufn_2_TEB mem_right_ipin_1.LATCH_1_.latch/Q
+ vgnd vpwr scs8hd_diode_2
XANTENNA__149__B _149_/B vgnd vpwr scs8hd_diode_2
XANTENNA__165__A _164_/X vgnd vpwr scs8hd_diode_2
XFILLER_4_81 vpwr vgnd scs8hd_fill_2
XFILLER_23_24 vpwr vgnd scs8hd_fill_2
XFILLER_23_57 vpwr vgnd scs8hd_fill_2
XANTENNA__075__A _140_/A vgnd vpwr scs8hd_diode_2
XFILLER_48_32 vgnd vpwr scs8hd_decap_8
XFILLER_48_65 vpwr vgnd scs8hd_fill_2
XFILLER_64_75 vgnd vpwr scs8hd_decap_12
XFILLER_9_48 vgnd vpwr scs8hd_decap_4
XANTENNA__135__D _143_/B vgnd vpwr scs8hd_diode_2
X_187_ chany_top_in[1] chany_bottom_out[1] vgnd vpwr scs8hd_buf_2
XANTENNA_mux_right_ipin_5.mux_l1_in_0_.TGATE_0_.scs8hd_ebufn_2_TEB mem_right_ipin_5.LATCH_0_.latch/Q
+ vgnd vpwr scs8hd_diode_2
XANTENNA_mux_right_ipin_5.tap_buf4_0_.scs8hd_inv_1_A mux_right_ipin_5.tap_buf4_0_.scs8hd_inv_1/A
+ vgnd vpwr scs8hd_diode_2
Xmem_left_ipin_0.LATCH_4_.latch data_in mem_left_ipin_0.LATCH_4_.latch/Q _159_/Y vgnd
+ vpwr scs8hd_lpflow_inputisolatch_1
XFILLER_55_143 vgnd vpwr scs8hd_decap_3
XFILLER_55_110 vgnd vpwr scs8hd_decap_12
X_110_ _110_/A address[3] _102_/A _110_/X vgnd vpwr scs8hd_or3_4
XFILLER_50_44 vgnd vpwr scs8hd_decap_8
XFILLER_59_97 vpwr vgnd scs8hd_fill_2
XFILLER_59_86 vgnd vpwr scs8hd_decap_6
XFILLER_61_135 vgnd vpwr scs8hd_decap_8
XFILLER_41_3 vgnd vpwr scs8hd_decap_3
XFILLER_37_143 vgnd vpwr scs8hd_decap_3
XFILLER_1_71 vpwr vgnd scs8hd_fill_2
XANTENNA__072__B _069_/X vgnd vpwr scs8hd_diode_2
XFILLER_20_47 vgnd vpwr scs8hd_decap_4
XANTENNA_mux_right_ipin_4.mux_l1_in_1_.TGATE_2_.scs8hd_ebufn_2_A mux_right_ipin_4.INVTX1_5_.scs8hd_inv_1/Y
+ vgnd vpwr scs8hd_diode_2
XANTENNA_mux_right_ipin_0.mux_l1_in_0_.TGATE_0_.scs8hd_ebufn_2_TEB mem_right_ipin_0.LATCH_0_.latch/Q
+ vgnd vpwr scs8hd_diode_2
XANTENNA_mux_right_ipin_1.INVTX1_4_.scs8hd_inv_1_A chany_bottom_in[7] vgnd vpwr scs8hd_diode_2
XFILLER_29_34 vpwr vgnd scs8hd_fill_2
XFILLER_45_66 vpwr vgnd scs8hd_fill_2
XFILLER_45_11 vgnd vpwr scs8hd_decap_3
XFILLER_43_135 vgnd vpwr scs8hd_decap_8
XFILLER_43_113 vgnd vpwr scs8hd_decap_8
XFILLER_61_98 vgnd vpwr scs8hd_decap_12
XFILLER_6_27 vpwr vgnd scs8hd_fill_2
XANTENNA_mux_right_ipin_5.INVTX1_5_.scs8hd_inv_1_A chany_top_in[7] vgnd vpwr scs8hd_diode_2
XANTENNA_mem_right_ipin_4.LATCH_1_.latch_SLEEPB _116_/Y vgnd vpwr scs8hd_diode_2
XFILLER_13_7 vgnd vpwr scs8hd_fill_1
XANTENNA__157__B _149_/B vgnd vpwr scs8hd_diode_2
XFILLER_34_102 vpwr vgnd scs8hd_fill_2
XFILLER_34_113 vgnd vpwr scs8hd_decap_12
XFILLER_25_102 vgnd vpwr scs8hd_decap_4
XFILLER_25_113 vpwr vgnd scs8hd_fill_2
XFILLER_40_138 vgnd vpwr scs8hd_decap_8
XANTENNA__083__A _082_/X vgnd vpwr scs8hd_diode_2
XFILLER_31_46 vpwr vgnd scs8hd_fill_2
XFILLER_31_57 vpwr vgnd scs8hd_fill_2
Xmem_right_ipin_6.LATCH_2_.latch data_in mem_right_ipin_6.LATCH_2_.latch/Q _132_/Y
+ vgnd vpwr scs8hd_lpflow_inputisolatch_1
XFILLER_56_32 vgnd vpwr scs8hd_decap_12
XPHY_141 vgnd vpwr scs8hd_tapvpwrvgnd_1
XPHY_130 vgnd vpwr scs8hd_tapvpwrvgnd_1
XPHY_152 vgnd vpwr scs8hd_tapvpwrvgnd_1
XFILLER_16_102 vgnd vpwr scs8hd_decap_8
XFILLER_16_113 vgnd vpwr scs8hd_decap_12
XANTENNA_mux_right_ipin_3.mux_l1_in_1_.TGATE_0_.scs8hd_ebufn_2_TEB mem_right_ipin_3.LATCH_0_.latch/Q
+ vgnd vpwr scs8hd_diode_2
XFILLER_31_105 vpwr vgnd scs8hd_fill_2
XPHY_163 vgnd vpwr scs8hd_tapvpwrvgnd_1
XPHY_174 vgnd vpwr scs8hd_tapvpwrvgnd_1
XPHY_185 vgnd vpwr scs8hd_tapvpwrvgnd_1
XPHY_196 vgnd vpwr scs8hd_tapvpwrvgnd_1
XANTENNA__168__A _167_/X vgnd vpwr scs8hd_diode_2
XANTENNA__078__A _124_/A vgnd vpwr scs8hd_diode_2
XFILLER_13_105 vgnd vpwr scs8hd_decap_4
XFILLER_13_127 vgnd vpwr scs8hd_decap_12
XFILLER_26_79 vgnd vpwr scs8hd_decap_4
XFILLER_42_45 vgnd vpwr scs8hd_decap_4
XFILLER_42_23 vpwr vgnd scs8hd_fill_2
XFILLER_9_109 vgnd vpwr scs8hd_fill_1
XANTENNA__154__C _154_/C vgnd vpwr scs8hd_diode_2
XANTENNA_mux_right_ipin_0.mux_l1_in_1_.TGATE_0_.scs8hd_ebufn_2_A mux_right_ipin_0.INVTX1_3_.scs8hd_inv_1/Y
+ vgnd vpwr scs8hd_diode_2
XFILLER_12_48 vgnd vpwr scs8hd_fill_1
XANTENNA__080__B _069_/X vgnd vpwr scs8hd_diode_2
XFILLER_5_123 vgnd vpwr scs8hd_decap_12
Xmem_left_ipin_1.LATCH_0_.latch data_in _146_/A _144_/Y vgnd vpwr scs8hd_lpflow_inputisolatch_1
XANTENNA_mux_right_ipin_5.mux_l2_in_0_.TGATE_2_.scs8hd_ebufn_2_A _177_/HI vgnd vpwr
+ scs8hd_diode_2
XANTENNA_mem_right_ipin_2.LATCH_4_.latch_D data_in vgnd vpwr scs8hd_diode_2
XANTENNA__149__C _161_/C vgnd vpwr scs8hd_diode_2
XANTENNA__181__A chany_top_in[7] vgnd vpwr scs8hd_diode_2
XANTENNA_mem_right_ipin_3.LATCH_2_.latch_D data_in vgnd vpwr scs8hd_diode_2
XANTENNA_mem_right_ipin_2.LATCH_2_.latch_SLEEPB _096_/Y vgnd vpwr scs8hd_diode_2
XFILLER_23_36 vpwr vgnd scs8hd_fill_2
XANTENNA_mem_right_ipin_4.LATCH_0_.latch_D data_in vgnd vpwr scs8hd_diode_2
XANTENNA__091__A _091_/A vgnd vpwr scs8hd_diode_2
XANTENNA_mux_left_ipin_0.INVTX1_3_.scs8hd_inv_1_A chany_top_in[4] vgnd vpwr scs8hd_diode_2
XFILLER_23_69 vpwr vgnd scs8hd_fill_2
XFILLER_58_141 vgnd vpwr scs8hd_decap_4
XFILLER_48_44 vpwr vgnd scs8hd_fill_2
XFILLER_64_87 vgnd vpwr scs8hd_decap_6
XFILLER_64_32 vgnd vpwr scs8hd_decap_12
Xmux_right_ipin_4.mux_l1_in_1_.TGATE_0_.scs8hd_ebufn_2 mux_right_ipin_4.INVTX1_3_.scs8hd_inv_1/Y
+ mem_right_ipin_4.LATCH_0_.latch/Q mux_right_ipin_4.mux_l1_in_1_.TGATE_2_.scs8hd_ebufn_2/Z
+ vgnd vpwr scs8hd_ebufn_2
XANTENNA_mux_right_ipin_1.mux_l1_in_0_.TGATE_2_.scs8hd_ebufn_2_A mux_right_ipin_1.INVTX1_2_.scs8hd_inv_1/Y
+ vgnd vpwr scs8hd_diode_2
XFILLER_9_27 vpwr vgnd scs8hd_fill_2
X_186_ chany_top_in[2] chany_bottom_out[2] vgnd vpwr scs8hd_buf_2
Xmux_right_ipin_3.INVTX1_3_.scs8hd_inv_1 chany_top_in[4] mux_right_ipin_3.INVTX1_3_.scs8hd_inv_1/Y
+ vgnd vpwr scs8hd_inv_1
XFILLER_36_6 vpwr vgnd scs8hd_fill_2
XFILLER_18_25 vgnd vpwr scs8hd_decap_4
XFILLER_18_47 vpwr vgnd scs8hd_fill_2
XANTENNA__086__A _122_/A vgnd vpwr scs8hd_diode_2
XFILLER_50_89 vgnd vpwr scs8hd_decap_3
XFILLER_50_78 vgnd vpwr scs8hd_fill_1
XFILLER_1_3 vgnd vpwr scs8hd_decap_4
XANTENNA_mux_right_ipin_3.INVTX1_2_.scs8hd_inv_1_A chany_bottom_in[4] vgnd vpwr scs8hd_diode_2
X_169_ _169_/A _141_/A _169_/Y vgnd vpwr scs8hd_nor2_4
XFILLER_34_3 vpwr vgnd scs8hd_fill_2
XANTENNA_mux_right_ipin_7.INVTX1_3_.scs8hd_inv_1_A chany_top_in[4] vgnd vpwr scs8hd_diode_2
XANTENNA_mem_left_ipin_0.LATCH_5_.latch_D data_in vgnd vpwr scs8hd_diode_2
XFILLER_29_57 vpwr vgnd scs8hd_fill_2
XFILLER_45_34 vpwr vgnd scs8hd_fill_2
XANTENNA_mux_right_ipin_1.mux_l2_in_0_.TGATE_0_.scs8hd_ebufn_2_A mux_right_ipin_1.mux_l2_in_0_.TGATE_0_.scs8hd_ebufn_2/A
+ vgnd vpwr scs8hd_diode_2
XANTENNA_mem_right_ipin_7.LATCH_4_.latch_D data_in vgnd vpwr scs8hd_diode_2
XFILLER_19_100 vpwr vgnd scs8hd_fill_2
XFILLER_19_111 vpwr vgnd scs8hd_fill_2
XANTENNA__157__C address[0] vgnd vpwr scs8hd_diode_2
XFILLER_34_125 vgnd vpwr scs8hd_decap_12
XFILLER_31_25 vpwr vgnd scs8hd_fill_2
XANTENNA_mem_right_ipin_0.LATCH_3_.latch_SLEEPB _074_/Y vgnd vpwr scs8hd_diode_2
XFILLER_31_69 vpwr vgnd scs8hd_fill_2
XFILLER_56_44 vgnd vpwr scs8hd_decap_12
XPHY_120 vgnd vpwr scs8hd_decap_3
XPHY_142 vgnd vpwr scs8hd_tapvpwrvgnd_1
XPHY_131 vgnd vpwr scs8hd_tapvpwrvgnd_1
XPHY_153 vgnd vpwr scs8hd_tapvpwrvgnd_1
XPHY_164 vgnd vpwr scs8hd_tapvpwrvgnd_1
XFILLER_16_125 vgnd vpwr scs8hd_decap_12
XPHY_175 vgnd vpwr scs8hd_tapvpwrvgnd_1
XFILLER_31_117 vgnd vpwr scs8hd_decap_4
XPHY_186 vgnd vpwr scs8hd_tapvpwrvgnd_1
XPHY_197 vgnd vpwr scs8hd_tapvpwrvgnd_1
XPHY_0 vgnd vpwr scs8hd_decap_3
XANTENNA__184__A chany_top_in[4] vgnd vpwr scs8hd_diode_2
XFILLER_7_82 vpwr vgnd scs8hd_fill_2
XANTENNA__078__B _069_/X vgnd vpwr scs8hd_diode_2
XFILLER_13_139 vgnd vpwr scs8hd_decap_6
XANTENNA__094__A _121_/A vgnd vpwr scs8hd_diode_2
XFILLER_26_58 vgnd vpwr scs8hd_decap_4
Xmux_left_ipin_1.mux_l1_in_0_.TGATE_0_.scs8hd_ebufn_2 mux_left_ipin_1.INVTX1_0_.scs8hd_inv_1/Y
+ _146_/A mux_left_ipin_1.mux_l2_in_0_.TGATE_0_.scs8hd_ebufn_2/A vgnd vpwr scs8hd_ebufn_2
XFILLER_37_57 vpwr vgnd scs8hd_fill_2
XANTENNA__089__A _125_/A vgnd vpwr scs8hd_diode_2
XFILLER_5_135 vgnd vpwr scs8hd_decap_8
XFILLER_5_113 vgnd vpwr scs8hd_decap_8
XFILLER_64_3 vgnd vpwr scs8hd_decap_12
XANTENNA__091__B address[6] vgnd vpwr scs8hd_diode_2
XFILLER_48_78 vgnd vpwr scs8hd_decap_12
XFILLER_64_44 vgnd vpwr scs8hd_decap_12
X_185_ chany_top_in[3] chany_bottom_out[3] vgnd vpwr scs8hd_buf_2
XFILLER_13_92 vgnd vpwr scs8hd_fill_1
XFILLER_64_145 vgnd vpwr scs8hd_fill_1
XFILLER_49_120 vpwr vgnd scs8hd_fill_2
XANTENNA__192__A chany_bottom_in[5] vgnd vpwr scs8hd_diode_2
XANTENNA_mux_right_ipin_5.INVTX1_0_.scs8hd_inv_1_A chany_bottom_in[2] vgnd vpwr scs8hd_diode_2
XFILLER_55_123 vgnd vpwr scs8hd_decap_12
XANTENNA__086__B _083_/X vgnd vpwr scs8hd_diode_2
XFILLER_34_25 vgnd vpwr scs8hd_decap_3
XFILLER_34_47 vpwr vgnd scs8hd_fill_2
XFILLER_59_77 vgnd vpwr scs8hd_fill_1
XFILLER_59_66 vgnd vpwr scs8hd_decap_4
XANTENNA_mux_right_ipin_6.mux_l2_in_0_.TGATE_2_.scs8hd_ebufn_2_TEB mem_right_ipin_6.LATCH_5_.latch/Q
+ vgnd vpwr scs8hd_diode_2
XFILLER_46_145 vgnd vpwr scs8hd_fill_1
Xmux_right_ipin_7.mux_l2_in_0_.TGATE_0_.scs8hd_ebufn_2 mux_right_ipin_7.mux_l1_in_0_.TGATE_0_.scs8hd_ebufn_2/Z
+ mem_right_ipin_7.LATCH_3_.latch/Q mux_right_ipin_7.tap_buf4_0_.scs8hd_inv_1/A vgnd
+ vpwr scs8hd_ebufn_2
XFILLER_40_90 vpwr vgnd scs8hd_fill_2
XFILLER_24_80 vpwr vgnd scs8hd_fill_2
XFILLER_24_91 vgnd vpwr scs8hd_fill_1
X_168_ _167_/X _141_/A vgnd vpwr scs8hd_buf_1
X_099_ _091_/A address[6] _066_/C _102_/A vgnd vpwr scs8hd_or3_4
XFILLER_37_123 vgnd vpwr scs8hd_decap_12
XFILLER_37_112 vgnd vpwr scs8hd_decap_8
XANTENNA__187__A chany_top_in[1] vgnd vpwr scs8hd_diode_2
XFILLER_1_40 vpwr vgnd scs8hd_fill_2
Xmux_right_ipin_1.INVTX1_3_.scs8hd_inv_1 chany_top_in[3] mux_right_ipin_1.INVTX1_3_.scs8hd_inv_1/Y
+ vgnd vpwr scs8hd_inv_1
XANTENNA_mem_left_ipin_1.LATCH_0_.latch_SLEEPB _144_/Y vgnd vpwr scs8hd_diode_2
XANTENNA_mem_right_ipin_7.LATCH_2_.latch_SLEEPB _140_/Y vgnd vpwr scs8hd_diode_2
XFILLER_20_27 vpwr vgnd scs8hd_fill_2
Xmux_right_ipin_1.tap_buf4_0_.scs8hd_inv_1 mux_right_ipin_1.tap_buf4_0_.scs8hd_inv_1/A
+ left_grid_pin_2_ vgnd vpwr scs8hd_inv_1
XFILLER_29_47 vpwr vgnd scs8hd_fill_2
XFILLER_29_69 vpwr vgnd scs8hd_fill_2