* NGSPICE file created from cby_1__1_.ext - technology: EFS8A

* Black-box entry subcircuit for scs8hd_diode_2 abstract view
.subckt scs8hd_diode_2 DIODE vgnd vpwr
.ends

* Black-box entry subcircuit for scs8hd_decap_3 abstract view
.subckt scs8hd_decap_3 vgnd vpwr
.ends

* Black-box entry subcircuit for scs8hd_decap_4 abstract view
.subckt scs8hd_decap_4 vgnd vpwr
.ends

* Black-box entry subcircuit for scs8hd_fill_2 abstract view
.subckt scs8hd_fill_2 vpwr vgnd
.ends

* Black-box entry subcircuit for scs8hd_decap_6 abstract view
.subckt scs8hd_decap_6 vgnd vpwr
.ends

* Black-box entry subcircuit for scs8hd_dfxbp_1 abstract view
.subckt scs8hd_dfxbp_1 CLK D Q QN vgnd vpwr
.ends

* Black-box entry subcircuit for scs8hd_mux2_1 abstract view
.subckt scs8hd_mux2_1 A0 A1 S X vgnd vpwr
.ends

* Black-box entry subcircuit for scs8hd_decap_8 abstract view
.subckt scs8hd_decap_8 vgnd vpwr
.ends

* Black-box entry subcircuit for scs8hd_buf_2 abstract view
.subckt scs8hd_buf_2 A X vgnd vpwr
.ends

* Black-box entry subcircuit for scs8hd_decap_12 abstract view
.subckt scs8hd_decap_12 vgnd vpwr
.ends

* Black-box entry subcircuit for scs8hd_fill_1 abstract view
.subckt scs8hd_fill_1 vgnd vpwr
.ends

* Black-box entry subcircuit for scs8hd_tapvpwrvgnd_1 abstract view
.subckt scs8hd_tapvpwrvgnd_1 vgnd vpwr
.ends

* Black-box entry subcircuit for scs8hd_buf_1 abstract view
.subckt scs8hd_buf_1 A X vgnd vpwr
.ends

* Black-box entry subcircuit for scs8hd_conb_1 abstract view
.subckt scs8hd_conb_1 HI LO vgnd vpwr
.ends

.subckt cby_1__1_ ccff_head ccff_tail chany_bottom_in[0] chany_bottom_in[10] chany_bottom_in[11]
+ chany_bottom_in[12] chany_bottom_in[13] chany_bottom_in[14] chany_bottom_in[15]
+ chany_bottom_in[16] chany_bottom_in[17] chany_bottom_in[18] chany_bottom_in[19]
+ chany_bottom_in[1] chany_bottom_in[2] chany_bottom_in[3] chany_bottom_in[4] chany_bottom_in[5]
+ chany_bottom_in[6] chany_bottom_in[7] chany_bottom_in[8] chany_bottom_in[9] chany_bottom_out[0]
+ chany_bottom_out[10] chany_bottom_out[11] chany_bottom_out[12] chany_bottom_out[13]
+ chany_bottom_out[14] chany_bottom_out[15] chany_bottom_out[16] chany_bottom_out[17]
+ chany_bottom_out[18] chany_bottom_out[19] chany_bottom_out[1] chany_bottom_out[2]
+ chany_bottom_out[3] chany_bottom_out[4] chany_bottom_out[5] chany_bottom_out[6]
+ chany_bottom_out[7] chany_bottom_out[8] chany_bottom_out[9] chany_top_in[0] chany_top_in[10]
+ chany_top_in[11] chany_top_in[12] chany_top_in[13] chany_top_in[14] chany_top_in[15]
+ chany_top_in[16] chany_top_in[17] chany_top_in[18] chany_top_in[19] chany_top_in[1]
+ chany_top_in[2] chany_top_in[3] chany_top_in[4] chany_top_in[5] chany_top_in[6]
+ chany_top_in[7] chany_top_in[8] chany_top_in[9] chany_top_out[0] chany_top_out[10]
+ chany_top_out[11] chany_top_out[12] chany_top_out[13] chany_top_out[14] chany_top_out[15]
+ chany_top_out[16] chany_top_out[17] chany_top_out[18] chany_top_out[19] chany_top_out[1]
+ chany_top_out[2] chany_top_out[3] chany_top_out[4] chany_top_out[5] chany_top_out[6]
+ chany_top_out[7] chany_top_out[8] chany_top_out[9] left_grid_pin_0_ left_grid_pin_10_
+ left_grid_pin_11_ left_grid_pin_12_ left_grid_pin_13_ left_grid_pin_14_ left_grid_pin_15_
+ left_grid_pin_1_ left_grid_pin_2_ left_grid_pin_3_ left_grid_pin_4_ left_grid_pin_5_
+ left_grid_pin_6_ left_grid_pin_7_ left_grid_pin_8_ left_grid_pin_9_ prog_clk right_grid_pin_52_
+ vpwr vgnd
XANTENNA_mux_right_ipin_1.mux_l3_in_0__A1 mux_right_ipin_1.mux_l2_in_0_/X vgnd vpwr
+ scs8hd_diode_2
XFILLER_26_85 vgnd vpwr scs8hd_decap_3
XFILLER_42_40 vgnd vpwr scs8hd_decap_4
XFILLER_13_144 vpwr vgnd scs8hd_fill_2
XFILLER_3_45 vpwr vgnd scs8hd_fill_2
XANTENNA_mux_left_ipin_0.mux_l2_in_1__A1 mux_left_ipin_0.mux_l1_in_2_/X vgnd vpwr
+ scs8hd_diode_2
XFILLER_63_39 vgnd vpwr scs8hd_decap_6
XANTENNA_mux_right_ipin_3.mux_l2_in_0__S mux_right_ipin_3.mux_l2_in_3_/S vgnd vpwr
+ scs8hd_diode_2
XFILLER_10_125 vpwr vgnd scs8hd_fill_2
XFILLER_12_10 vpwr vgnd scs8hd_fill_2
Xmem_right_ipin_4.scs8hd_dfxbp_1_1_ prog_clk mux_right_ipin_4.mux_l1_in_2_/S mux_right_ipin_4.mux_l2_in_3_/S
+ mem_right_ipin_4.scs8hd_dfxbp_1_1_/QN vgnd vpwr scs8hd_dfxbp_1
XANTENNA_mux_right_ipin_8.mux_l4_in_0__A0 mux_right_ipin_8.mux_l3_in_1_/X vgnd vpwr
+ scs8hd_diode_2
Xmux_right_ipin_11.mux_l2_in_0_ chany_bottom_in[2] mux_right_ipin_11.mux_l1_in_0_/X
+ mux_right_ipin_11.mux_l2_in_3_/S mux_right_ipin_11.mux_l2_in_0_/X vgnd vpwr scs8hd_mux2_1
XFILLER_37_62 vpwr vgnd scs8hd_fill_2
XFILLER_37_73 vpwr vgnd scs8hd_fill_2
XFILLER_53_50 vgnd vpwr scs8hd_decap_8
XANTENNA_mux_left_ipin_0.mux_l2_in_0__S mux_left_ipin_0.mux_l2_in_2_/S vgnd vpwr scs8hd_diode_2
XANTENNA_mem_right_ipin_4.scs8hd_dfxbp_1_2__D mux_right_ipin_4.mux_l2_in_3_/S vgnd
+ vpwr scs8hd_diode_2
XANTENNA_mux_right_ipin_9.mux_l1_in_1__S mux_right_ipin_9.mux_l1_in_2_/S vgnd vpwr
+ scs8hd_diode_2
X_66_ chany_bottom_in[7] chany_top_out[7] vgnd vpwr scs8hd_buf_2
XFILLER_59_114 vpwr vgnd scs8hd_fill_2
XANTENNA_mem_right_ipin_2.scs8hd_dfxbp_1_3__CLK prog_clk vgnd vpwr scs8hd_diode_2
XFILLER_23_53 vpwr vgnd scs8hd_fill_2
XFILLER_23_75 vgnd vpwr scs8hd_decap_4
XFILLER_48_50 vpwr vgnd scs8hd_fill_2
XANTENNA_mux_left_ipin_0.mux_l3_in_0__A1 mux_left_ipin_0.mux_l2_in_0_/X vgnd vpwr
+ scs8hd_diode_2
XANTENNA_mem_right_ipin_0.scs8hd_dfxbp_1_1__CLK prog_clk vgnd vpwr scs8hd_diode_2
XFILLER_9_22 vgnd vpwr scs8hd_decap_12
XFILLER_9_77 vpwr vgnd scs8hd_fill_2
XFILLER_9_99 vpwr vgnd scs8hd_fill_2
X_49_ chany_top_in[4] chany_bottom_out[4] vgnd vpwr scs8hd_buf_2
XANTENNA_mux_right_ipin_2.mux_l3_in_0__S mux_right_ipin_2.mux_l3_in_0_/S vgnd vpwr
+ scs8hd_diode_2
XFILLER_62_109 vgnd vpwr scs8hd_decap_12
XFILLER_18_42 vpwr vgnd scs8hd_fill_2
XFILLER_18_64 vgnd vpwr scs8hd_fill_1
XFILLER_18_97 vgnd vpwr scs8hd_fill_1
XFILLER_50_40 vgnd vpwr scs8hd_fill_1
XANTENNA_mux_right_ipin_8.mux_l2_in_1__S mux_right_ipin_8.mux_l2_in_3_/S vgnd vpwr
+ scs8hd_diode_2
XANTENNA_mux_right_ipin_8.mux_l2_in_2__A1 chany_top_in[13] vgnd vpwr scs8hd_diode_2
XFILLER_20_32 vpwr vgnd scs8hd_fill_2
XANTENNA_mux_right_ipin_11.mux_l1_in_0__S mux_right_ipin_11.mux_l1_in_0_/S vgnd vpwr
+ scs8hd_diode_2
XFILLER_45_84 vpwr vgnd scs8hd_fill_2
XFILLER_6_23 vpwr vgnd scs8hd_fill_2
XFILLER_6_78 vgnd vpwr scs8hd_fill_1
XFILLER_6_45 vgnd vpwr scs8hd_fill_1
Xmem_right_ipin_14.scs8hd_dfxbp_1_2_ prog_clk mux_right_ipin_14.mux_l2_in_2_/S mux_right_ipin_14.mux_l3_in_0_/S
+ mem_right_ipin_14.scs8hd_dfxbp_1_2_/QN vgnd vpwr scs8hd_dfxbp_1
XANTENNA_mux_right_ipin_3.mux_l2_in_3__S mux_right_ipin_3.mux_l2_in_3_/S vgnd vpwr
+ scs8hd_diode_2
XANTENNA_mux_right_ipin_11.mux_l2_in_0__A1 mux_right_ipin_11.mux_l1_in_0_/X vgnd vpwr
+ scs8hd_diode_2
XANTENNA_mux_right_ipin_1.mux_l4_in_0__S mux_right_ipin_1.mux_l4_in_0_/S vgnd vpwr
+ scs8hd_diode_2
XFILLER_31_75 vpwr vgnd scs8hd_fill_2
XANTENNA_mux_left_ipin_0.mux_l2_in_3__S mux_left_ipin_0.mux_l2_in_2_/S vgnd vpwr scs8hd_diode_2
XANTENNA_mux_right_ipin_5.mux_l1_in_1__A0 chany_top_in[2] vgnd vpwr scs8hd_diode_2
XANTENNA_mux_right_ipin_8.mux_l3_in_1__A1 mux_right_ipin_8.mux_l2_in_2_/X vgnd vpwr
+ scs8hd_diode_2
XPHY_170 vgnd vpwr scs8hd_tapvpwrvgnd_1
XFILLER_31_123 vgnd vpwr scs8hd_decap_12
XANTENNA_mux_right_ipin_15.scs8hd_buf_4_0__A mux_right_ipin_15.mux_l4_in_0_/X vgnd
+ vpwr scs8hd_diode_2
XPHY_181 vgnd vpwr scs8hd_tapvpwrvgnd_1
XPHY_192 vgnd vpwr scs8hd_tapvpwrvgnd_1
XANTENNA_mem_right_ipin_6.scs8hd_dfxbp_1_1__D mux_right_ipin_6.mux_l1_in_0_/S vgnd
+ vpwr scs8hd_diode_2
XANTENNA_mux_right_ipin_7.mux_l3_in_1__S mux_right_ipin_7.mux_l3_in_0_/S vgnd vpwr
+ scs8hd_diode_2
XFILLER_22_112 vpwr vgnd scs8hd_fill_2
XFILLER_26_42 vgnd vpwr scs8hd_decap_3
XFILLER_26_64 vpwr vgnd scs8hd_fill_2
XFILLER_26_75 vgnd vpwr scs8hd_decap_8
XFILLER_26_97 vgnd vpwr scs8hd_decap_3
XFILLER_42_63 vgnd vpwr scs8hd_decap_8
XFILLER_42_30 vgnd vpwr scs8hd_fill_1
XANTENNA_mux_right_ipin_10.mux_l2_in_0__S mux_right_ipin_10.mux_l2_in_2_/S vgnd vpwr
+ scs8hd_diode_2
XFILLER_3_57 vpwr vgnd scs8hd_fill_2
XFILLER_3_13 vgnd vpwr scs8hd_decap_3
XANTENNA_mux_right_ipin_5.mux_l2_in_0__A0 mux_right_ipin_5.mux_l1_in_1_/X vgnd vpwr
+ scs8hd_diode_2
Xmem_right_ipin_4.scs8hd_dfxbp_1_0_ prog_clk mux_right_ipin_3.mux_l4_in_0_/S mux_right_ipin_4.mux_l1_in_2_/S
+ mem_right_ipin_4.scs8hd_dfxbp_1_0_/QN vgnd vpwr scs8hd_dfxbp_1
XANTENNA_mux_right_ipin_8.mux_l4_in_0__A1 mux_right_ipin_8.mux_l3_in_0_/X vgnd vpwr
+ scs8hd_diode_2
XFILLER_37_30 vpwr vgnd scs8hd_fill_2
XFILLER_53_84 vgnd vpwr scs8hd_fill_1
XFILLER_53_62 vgnd vpwr scs8hd_decap_6
X_65_ chany_bottom_in[8] chany_top_out[8] vgnd vpwr scs8hd_buf_2
XFILLER_23_21 vgnd vpwr scs8hd_fill_1
XFILLER_23_32 vpwr vgnd scs8hd_fill_2
XANTENNA_mux_right_ipin_3.mux_l2_in_2__A0 chany_bottom_in[16] vgnd vpwr scs8hd_diode_2
XFILLER_48_84 vgnd vpwr scs8hd_decap_6
XFILLER_64_94 vgnd vpwr scs8hd_decap_12
XFILLER_0_36 vgnd vpwr scs8hd_decap_4
XFILLER_0_58 vpwr vgnd scs8hd_fill_2
X_48_ chany_top_in[5] chany_bottom_out[5] vgnd vpwr scs8hd_buf_2
XFILLER_60_19 vgnd vpwr scs8hd_decap_12
Xmux_right_ipin_11.mux_l1_in_0_ chany_top_in[0] chany_bottom_in[0] mux_right_ipin_11.mux_l1_in_0_/S
+ mux_right_ipin_11.mux_l1_in_0_/X vgnd vpwr scs8hd_mux2_1
XANTENNA_mux_right_ipin_15.mux_l2_in_1__S mux_right_ipin_15.mux_l2_in_0_/S vgnd vpwr
+ scs8hd_diode_2
XFILLER_18_32 vgnd vpwr scs8hd_decap_8
XFILLER_34_42 vpwr vgnd scs8hd_fill_2
XFILLER_34_86 vgnd vpwr scs8hd_decap_4
XFILLER_34_97 vgnd vpwr scs8hd_fill_1
XFILLER_50_85 vgnd vpwr scs8hd_decap_6
XFILLER_38_129 vpwr vgnd scs8hd_fill_2
XFILLER_61_143 vgnd vpwr scs8hd_decap_3
XFILLER_61_121 vgnd vpwr scs8hd_fill_1
XANTENNA_mem_right_ipin_8.scs8hd_dfxbp_1_0__D mux_right_ipin_7.mux_l4_in_0_/S vgnd
+ vpwr scs8hd_diode_2
XFILLER_29_107 vgnd vpwr scs8hd_decap_12
XFILLER_55_19 vgnd vpwr scs8hd_decap_12
XFILLER_52_132 vgnd vpwr scs8hd_decap_12
XFILLER_52_110 vgnd vpwr scs8hd_decap_3
XANTENNA_mux_right_ipin_3.mux_l3_in_1__A0 mux_right_ipin_3.mux_l2_in_3_/X vgnd vpwr
+ scs8hd_diode_2
XFILLER_37_140 vgnd vpwr scs8hd_decap_6
XFILLER_20_88 vpwr vgnd scs8hd_fill_2
XANTENNA_mem_right_ipin_7.scs8hd_dfxbp_1_3__CLK prog_clk vgnd vpwr scs8hd_diode_2
XFILLER_43_143 vgnd vpwr scs8hd_decap_3
XFILLER_43_121 vgnd vpwr scs8hd_fill_1
XANTENNA_mux_right_ipin_10.mux_l2_in_3__S mux_right_ipin_10.mux_l2_in_2_/S vgnd vpwr
+ scs8hd_diode_2
XFILLER_61_40 vgnd vpwr scs8hd_decap_6
XANTENNA_mem_right_ipin_5.scs8hd_dfxbp_1_1__CLK prog_clk vgnd vpwr scs8hd_diode_2
Xmem_right_ipin_14.scs8hd_dfxbp_1_1_ prog_clk mux_right_ipin_14.mux_l1_in_0_/S mux_right_ipin_14.mux_l2_in_2_/S
+ mem_right_ipin_14.scs8hd_dfxbp_1_1_/QN vgnd vpwr scs8hd_dfxbp_1
XANTENNA_mux_right_ipin_14.mux_l3_in_1__S mux_right_ipin_14.mux_l3_in_0_/S vgnd vpwr
+ scs8hd_diode_2
XFILLER_15_33 vpwr vgnd scs8hd_fill_2
XFILLER_15_55 vpwr vgnd scs8hd_fill_2
XFILLER_15_66 vgnd vpwr scs8hd_decap_4
XFILLER_25_121 vgnd vpwr scs8hd_fill_1
XFILLER_25_143 vgnd vpwr scs8hd_decap_3
XFILLER_40_102 vgnd vpwr scs8hd_decap_8
XANTENNA_mux_right_ipin_5.mux_l1_in_1__A1 chany_bottom_in[2] vgnd vpwr scs8hd_diode_2
XPHY_160 vgnd vpwr scs8hd_tapvpwrvgnd_1
XANTENNA_mux_right_ipin_3.mux_l4_in_0__A0 mux_right_ipin_3.mux_l3_in_1_/X vgnd vpwr
+ scs8hd_diode_2
XPHY_171 vgnd vpwr scs8hd_tapvpwrvgnd_1
XPHY_182 vgnd vpwr scs8hd_tapvpwrvgnd_1
XPHY_193 vgnd vpwr scs8hd_tapvpwrvgnd_1
XFILLER_31_135 vgnd vpwr scs8hd_decap_8
XFILLER_22_135 vgnd vpwr scs8hd_decap_8
XANTENNA_mem_right_ipin_14.scs8hd_dfxbp_1_3__CLK prog_clk vgnd vpwr scs8hd_diode_2
XANTENNA_mux_right_ipin_15.mux_l1_in_0__A0 chany_top_in[0] vgnd vpwr scs8hd_diode_2
XANTENNA_mux_right_ipin_0.mux_l1_in_0__S mux_right_ipin_0.mux_l1_in_2_/S vgnd vpwr
+ scs8hd_diode_2
XFILLER_26_32 vgnd vpwr scs8hd_decap_4
XFILLER_26_54 vgnd vpwr scs8hd_decap_4
XFILLER_42_97 vgnd vpwr scs8hd_fill_1
XFILLER_42_75 vgnd vpwr scs8hd_decap_6
XANTENNA_mem_right_ipin_12.scs8hd_dfxbp_1_1__CLK prog_clk vgnd vpwr scs8hd_diode_2
XANTENNA_mux_right_ipin_2.scs8hd_buf_4_0__A mux_right_ipin_2.mux_l4_in_0_/X vgnd vpwr
+ scs8hd_diode_2
XANTENNA_mux_right_ipin_5.mux_l2_in_0__A1 mux_right_ipin_5.mux_l1_in_0_/X vgnd vpwr
+ scs8hd_diode_2
XFILLER_12_23 vgnd vpwr scs8hd_decap_8
XFILLER_12_67 vgnd vpwr scs8hd_decap_4
XANTENNA_mux_right_ipin_13.mux_l1_in_2__A0 chany_top_in[8] vgnd vpwr scs8hd_diode_2
XFILLER_37_53 vpwr vgnd scs8hd_fill_2
XFILLER_53_96 vpwr vgnd scs8hd_fill_2
XFILLER_53_74 vpwr vgnd scs8hd_fill_2
XFILLER_5_120 vpwr vgnd scs8hd_fill_2
X_64_ chany_bottom_in[9] chany_top_out[9] vgnd vpwr scs8hd_buf_2
XANTENNA_mem_right_ipin_10.scs8hd_dfxbp_1_1__D mux_right_ipin_10.mux_l1_in_0_/S vgnd
+ vpwr scs8hd_diode_2
XFILLER_38_6 vgnd vpwr scs8hd_decap_8
Xmux_right_ipin_3.mux_l2_in_3_ _31_/HI chany_top_in[16] mux_right_ipin_3.mux_l2_in_3_/S
+ mux_right_ipin_3.mux_l2_in_3_/X vgnd vpwr scs8hd_mux2_1
XANTENNA_mem_right_ipin_8.scs8hd_dfxbp_1_3__D mux_right_ipin_8.mux_l3_in_1_/S vgnd
+ vpwr scs8hd_diode_2
XFILLER_3_3 vpwr vgnd scs8hd_fill_2
XFILLER_2_145 vgnd vpwr scs8hd_fill_1
XFILLER_2_101 vgnd vpwr scs8hd_decap_4
XANTENNA_mux_right_ipin_3.mux_l2_in_2__A1 chany_top_in[8] vgnd vpwr scs8hd_diode_2
XFILLER_0_15 vpwr vgnd scs8hd_fill_2
XFILLER_9_57 vpwr vgnd scs8hd_fill_2
XFILLER_56_119 vgnd vpwr scs8hd_decap_3
X_47_ chany_top_in[6] chany_bottom_out[6] vgnd vpwr scs8hd_buf_2
XANTENNA_mux_right_ipin_5.mux_l1_in_1__S mux_right_ipin_5.mux_l1_in_0_/S vgnd vpwr
+ scs8hd_diode_2
XANTENNA_mux_right_ipin_13.mux_l2_in_1__A0 chany_bottom_in[14] vgnd vpwr scs8hd_diode_2
XFILLER_18_11 vgnd vpwr scs8hd_fill_1
XFILLER_18_22 vgnd vpwr scs8hd_decap_8
XFILLER_55_130 vgnd vpwr scs8hd_decap_12
XFILLER_34_32 vgnd vpwr scs8hd_decap_8
XFILLER_50_64 vpwr vgnd scs8hd_fill_2
XFILLER_34_65 vpwr vgnd scs8hd_fill_2
XFILLER_59_62 vgnd vpwr scs8hd_decap_4
XFILLER_59_51 vgnd vpwr scs8hd_decap_8
XFILLER_50_97 vpwr vgnd scs8hd_fill_2
XANTENNA_mux_right_ipin_0.mux_l1_in_1__A0 chany_top_in[3] vgnd vpwr scs8hd_diode_2
XANTENNA_mux_right_ipin_3.mux_l3_in_1__A1 mux_right_ipin_3.mux_l2_in_2_/X vgnd vpwr
+ scs8hd_diode_2
XFILLER_29_119 vgnd vpwr scs8hd_decap_3
XFILLER_52_144 vpwr vgnd scs8hd_fill_2
Xmux_right_ipin_8.scs8hd_buf_4_0_ mux_right_ipin_8.mux_l4_in_0_/X left_grid_pin_8_
+ vgnd vpwr scs8hd_buf_1
XFILLER_20_23 vgnd vpwr scs8hd_decap_8
XFILLER_29_10 vgnd vpwr scs8hd_decap_12
XANTENNA_mux_right_ipin_11.mux_l2_in_3__A0 _25_/HI vgnd vpwr scs8hd_diode_2
Xmux_right_ipin_3.mux_l4_in_0_ mux_right_ipin_3.mux_l3_in_1_/X mux_right_ipin_3.mux_l3_in_0_/X
+ mux_right_ipin_3.mux_l4_in_0_/S mux_right_ipin_3.mux_l4_in_0_/X vgnd vpwr scs8hd_mux2_1
XFILLER_29_54 vgnd vpwr scs8hd_decap_6
XFILLER_45_97 vpwr vgnd scs8hd_fill_2
XFILLER_45_75 vpwr vgnd scs8hd_fill_2
XFILLER_43_111 vpwr vgnd scs8hd_fill_2
XFILLER_20_6 vgnd vpwr scs8hd_decap_8
XANTENNA_mux_right_ipin_13.mux_l3_in_0__A0 mux_right_ipin_13.mux_l2_in_1_/X vgnd vpwr
+ scs8hd_diode_2
XFILLER_34_100 vpwr vgnd scs8hd_fill_2
XFILLER_34_122 vgnd vpwr scs8hd_fill_1
XFILLER_34_133 vgnd vpwr scs8hd_decap_12
Xmem_right_ipin_14.scs8hd_dfxbp_1_0_ prog_clk mux_right_ipin_13.mux_l4_in_0_/S mux_right_ipin_14.mux_l1_in_0_/S
+ mem_right_ipin_14.scs8hd_dfxbp_1_0_/QN vgnd vpwr scs8hd_dfxbp_1
XANTENNA_mux_right_ipin_4.mux_l2_in_1__S mux_right_ipin_4.mux_l2_in_3_/S vgnd vpwr
+ scs8hd_diode_2
XFILLER_31_88 vgnd vpwr scs8hd_decap_4
XFILLER_31_99 vgnd vpwr scs8hd_decap_3
XFILLER_56_96 vgnd vpwr scs8hd_decap_4
XFILLER_56_74 vpwr vgnd scs8hd_fill_2
XFILLER_56_30 vgnd vpwr scs8hd_fill_1
XANTENNA_mux_right_ipin_0.mux_l2_in_0__A0 mux_right_ipin_0.mux_l1_in_1_/X vgnd vpwr
+ scs8hd_diode_2
XPHY_150 vgnd vpwr scs8hd_tapvpwrvgnd_1
XANTENNA_mux_right_ipin_3.mux_l4_in_0__A1 mux_right_ipin_3.mux_l3_in_0_/X vgnd vpwr
+ scs8hd_diode_2
XPHY_161 vgnd vpwr scs8hd_tapvpwrvgnd_1
XPHY_172 vgnd vpwr scs8hd_tapvpwrvgnd_1
XPHY_183 vgnd vpwr scs8hd_tapvpwrvgnd_1
XPHY_194 vgnd vpwr scs8hd_tapvpwrvgnd_1
Xmux_right_ipin_8.mux_l2_in_3_ _19_/HI chany_top_in[19] mux_right_ipin_8.mux_l2_in_3_/S
+ mux_right_ipin_8.mux_l2_in_3_/X vgnd vpwr scs8hd_mux2_1
XANTENNA_mem_right_ipin_12.scs8hd_dfxbp_1_0__D mux_right_ipin_11.mux_l4_in_0_/S vgnd
+ vpwr scs8hd_diode_2
Xmux_right_ipin_3.mux_l3_in_1_ mux_right_ipin_3.mux_l2_in_3_/X mux_right_ipin_3.mux_l2_in_2_/X
+ mux_right_ipin_3.mux_l3_in_1_/S mux_right_ipin_3.mux_l3_in_1_/X vgnd vpwr scs8hd_mux2_1
XANTENNA_mux_right_ipin_15.mux_l1_in_0__A1 chany_bottom_in[0] vgnd vpwr scs8hd_diode_2
XFILLER_42_32 vgnd vpwr scs8hd_fill_1
XFILLER_9_107 vpwr vgnd scs8hd_fill_2
XFILLER_13_103 vpwr vgnd scs8hd_fill_2
XFILLER_13_114 vpwr vgnd scs8hd_fill_2
XFILLER_13_136 vpwr vgnd scs8hd_fill_2
XFILLER_3_37 vpwr vgnd scs8hd_fill_2
Xmux_right_ipin_14.scs8hd_buf_4_0_ mux_right_ipin_14.mux_l4_in_0_/X left_grid_pin_14_
+ vgnd vpwr scs8hd_buf_1
XANTENNA_mux_right_ipin_3.mux_l3_in_1__S mux_right_ipin_3.mux_l3_in_1_/S vgnd vpwr
+ scs8hd_diode_2
XFILLER_5_7 vpwr vgnd scs8hd_fill_2
XANTENNA_mux_right_ipin_13.mux_l1_in_2__A1 chany_bottom_in[8] vgnd vpwr scs8hd_diode_2
XANTENNA_mux_left_ipin_0.mux_l3_in_1__S mux_left_ipin_0.mux_l3_in_1_/S vgnd vpwr scs8hd_diode_2
XFILLER_45_8 vpwr vgnd scs8hd_fill_2
X_63_ chany_bottom_in[10] chany_top_out[10] vgnd vpwr scs8hd_buf_2
Xmux_right_ipin_3.mux_l2_in_2_ chany_bottom_in[16] chany_top_in[8] mux_right_ipin_3.mux_l2_in_3_/S
+ mux_right_ipin_3.mux_l2_in_2_/X vgnd vpwr scs8hd_mux2_1
XANTENNA_mux_right_ipin_9.mux_l2_in_2__S mux_right_ipin_9.mux_l2_in_1_/S vgnd vpwr
+ scs8hd_diode_2
Xmux_right_ipin_8.mux_l4_in_0_ mux_right_ipin_8.mux_l3_in_1_/X mux_right_ipin_8.mux_l3_in_0_/X
+ mux_right_ipin_8.mux_l4_in_0_/S mux_right_ipin_8.mux_l4_in_0_/X vgnd vpwr scs8hd_mux2_1
XANTENNA_mux_right_ipin_9.mux_l1_in_0__A0 chany_top_in[0] vgnd vpwr scs8hd_diode_2
XANTENNA_mux_right_ipin_12.mux_l1_in_1__S mux_right_ipin_12.mux_l1_in_1_/S vgnd vpwr
+ scs8hd_diode_2
XFILLER_48_75 vgnd vpwr scs8hd_decap_3
XFILLER_0_27 vpwr vgnd scs8hd_fill_2
XFILLER_64_63 vgnd vpwr scs8hd_decap_12
XFILLER_9_36 vpwr vgnd scs8hd_fill_2
Xmem_right_ipin_7.scs8hd_dfxbp_1_3_ prog_clk mux_right_ipin_7.mux_l3_in_0_/S mux_right_ipin_7.mux_l4_in_0_/S
+ mem_right_ipin_7.scs8hd_dfxbp_1_3_/QN vgnd vpwr scs8hd_dfxbp_1
XFILLER_50_6 vgnd vpwr scs8hd_decap_8
X_46_ chany_top_in[7] chany_bottom_out[7] vgnd vpwr scs8hd_buf_2
XANTENNA_mux_right_ipin_13.mux_l2_in_1__A1 mux_right_ipin_13.mux_l1_in_2_/X vgnd vpwr
+ scs8hd_diode_2
XFILLER_55_142 vgnd vpwr scs8hd_decap_4
XFILLER_47_109 vpwr vgnd scs8hd_fill_2
XFILLER_18_89 vgnd vpwr scs8hd_decap_3
XFILLER_50_32 vpwr vgnd scs8hd_fill_2
XFILLER_50_21 vpwr vgnd scs8hd_fill_2
XFILLER_61_123 vgnd vpwr scs8hd_decap_12
XFILLER_61_101 vgnd vpwr scs8hd_decap_12
XANTENNA_mem_right_ipin_12.scs8hd_dfxbp_1_3__D mux_right_ipin_12.mux_l3_in_0_/S vgnd
+ vpwr scs8hd_diode_2
Xmux_right_ipin_8.mux_l3_in_1_ mux_right_ipin_8.mux_l2_in_3_/X mux_right_ipin_8.mux_l2_in_2_/X
+ mux_right_ipin_8.mux_l3_in_1_/S mux_right_ipin_8.mux_l3_in_1_/X vgnd vpwr scs8hd_mux2_1
XANTENNA_mux_right_ipin_0.mux_l1_in_1__A1 chany_bottom_in[3] vgnd vpwr scs8hd_diode_2
X_29_ _29_/HI _29_/LO vgnd vpwr scs8hd_conb_1
XANTENNA_mux_right_ipin_11.mux_l2_in_3__A1 chany_top_in[16] vgnd vpwr scs8hd_diode_2
XFILLER_20_68 vgnd vpwr scs8hd_fill_1
XFILLER_29_22 vgnd vpwr scs8hd_decap_3
XFILLER_45_43 vgnd vpwr scs8hd_decap_12
XFILLER_43_123 vgnd vpwr scs8hd_decap_12
XFILLER_29_99 vpwr vgnd scs8hd_fill_2
XFILLER_61_53 vpwr vgnd scs8hd_fill_2
XANTENNA_mux_right_ipin_11.mux_l2_in_1__S mux_right_ipin_11.mux_l2_in_3_/S vgnd vpwr
+ scs8hd_diode_2
XFILLER_61_97 vpwr vgnd scs8hd_fill_2
XFILLER_6_48 vpwr vgnd scs8hd_fill_2
XANTENNA_mux_right_ipin_13.mux_l3_in_0__A1 mux_right_ipin_13.mux_l2_in_0_/X vgnd vpwr
+ scs8hd_diode_2
XFILLER_13_6 vgnd vpwr scs8hd_decap_3
XANTENNA_mux_right_ipin_10.mux_l1_in_0__A0 chany_top_in[1] vgnd vpwr scs8hd_diode_2
XFILLER_34_145 vgnd vpwr scs8hd_fill_1
XANTENNA_mux_right_ipin_7.mux_l2_in_1__A0 chany_bottom_in[4] vgnd vpwr scs8hd_diode_2
XFILLER_25_123 vgnd vpwr scs8hd_decap_12
XFILLER_15_46 vpwr vgnd scs8hd_fill_2
XANTENNA_mux_right_ipin_0.mux_l2_in_0__A1 mux_right_ipin_0.mux_l1_in_0_/X vgnd vpwr
+ scs8hd_diode_2
XFILLER_16_145 vgnd vpwr scs8hd_fill_1
XFILLER_31_115 vpwr vgnd scs8hd_fill_2
Xmux_right_ipin_8.mux_l2_in_2_ chany_bottom_in[19] chany_top_in[13] mux_right_ipin_8.mux_l2_in_3_/S
+ mux_right_ipin_8.mux_l2_in_2_/X vgnd vpwr scs8hd_mux2_1
XPHY_140 vgnd vpwr scs8hd_tapvpwrvgnd_1
XPHY_151 vgnd vpwr scs8hd_tapvpwrvgnd_1
XPHY_162 vgnd vpwr scs8hd_tapvpwrvgnd_1
XPHY_173 vgnd vpwr scs8hd_tapvpwrvgnd_1
XPHY_184 vgnd vpwr scs8hd_tapvpwrvgnd_1
XPHY_195 vgnd vpwr scs8hd_tapvpwrvgnd_1
XFILLER_11_3 vpwr vgnd scs8hd_fill_2
Xmux_right_ipin_3.mux_l3_in_0_ mux_right_ipin_3.mux_l2_in_1_/X mux_right_ipin_3.mux_l2_in_0_/X
+ mux_right_ipin_3.mux_l3_in_1_/S mux_right_ipin_3.mux_l3_in_0_/X vgnd vpwr scs8hd_mux2_1
XANTENNA_mux_right_ipin_5.mux_l2_in_3__A0 _33_/HI vgnd vpwr scs8hd_diode_2
XFILLER_42_22 vgnd vpwr scs8hd_decap_8
XFILLER_9_119 vgnd vpwr scs8hd_decap_3
XANTENNA_mux_right_ipin_10.mux_l3_in_1__S mux_right_ipin_10.mux_l3_in_1_/S vgnd vpwr
+ scs8hd_diode_2
XANTENNA_mux_right_ipin_7.mux_l3_in_0__A0 mux_right_ipin_7.mux_l2_in_1_/X vgnd vpwr
+ scs8hd_diode_2
XFILLER_10_129 vgnd vpwr scs8hd_decap_12
XANTENNA_mux_right_ipin_10.scs8hd_buf_4_0__A mux_right_ipin_10.mux_l4_in_0_/X vgnd
+ vpwr scs8hd_diode_2
XFILLER_37_77 vpwr vgnd scs8hd_fill_2
XANTENNA_mem_left_ipin_0.scs8hd_dfxbp_1_1__CLK prog_clk vgnd vpwr scs8hd_diode_2
X_62_ chany_bottom_in[11] chany_top_out[11] vgnd vpwr scs8hd_buf_2
Xmux_right_ipin_3.mux_l2_in_1_ chany_bottom_in[8] chany_top_in[2] mux_right_ipin_3.mux_l2_in_3_/S
+ mux_right_ipin_3.mux_l2_in_1_/X vgnd vpwr scs8hd_mux2_1
XANTENNA_mem_right_ipin_14.scs8hd_dfxbp_1_2__D mux_right_ipin_14.mux_l2_in_2_/S vgnd
+ vpwr scs8hd_diode_2
XFILLER_59_118 vpwr vgnd scs8hd_fill_2
XFILLER_4_81 vpwr vgnd scs8hd_fill_2
XANTENNA_mux_right_ipin_9.mux_l1_in_0__A1 chany_bottom_in[0] vgnd vpwr scs8hd_diode_2
XFILLER_23_24 vpwr vgnd scs8hd_fill_2
XFILLER_23_57 vpwr vgnd scs8hd_fill_2
XFILLER_23_79 vgnd vpwr scs8hd_fill_1
XFILLER_48_32 vgnd vpwr scs8hd_decap_4
XFILLER_48_54 vpwr vgnd scs8hd_fill_2
XFILLER_64_75 vgnd vpwr scs8hd_decap_12
Xmux_right_ipin_3.scs8hd_buf_4_0_ mux_right_ipin_3.mux_l4_in_0_/X left_grid_pin_3_
+ vgnd vpwr scs8hd_buf_1
Xmem_right_ipin_7.scs8hd_dfxbp_1_2_ prog_clk mux_right_ipin_7.mux_l2_in_0_/S mux_right_ipin_7.mux_l3_in_0_/S
+ mem_right_ipin_7.scs8hd_dfxbp_1_2_/QN vgnd vpwr scs8hd_dfxbp_1
XFILLER_43_6 vpwr vgnd scs8hd_fill_2
X_45_ chany_top_in[8] chany_bottom_out[8] vgnd vpwr scs8hd_buf_2
XFILLER_18_46 vpwr vgnd scs8hd_fill_2
XFILLER_18_57 vgnd vpwr scs8hd_decap_4
XANTENNA_mem_right_ipin_3.scs8hd_dfxbp_1_2__CLK prog_clk vgnd vpwr scs8hd_diode_2
XFILLER_34_23 vgnd vpwr scs8hd_decap_8
Xmux_right_ipin_12.mux_l2_in_3_ _26_/HI chany_top_in[17] mux_right_ipin_12.mux_l2_in_0_/S
+ mux_right_ipin_12.mux_l2_in_3_/X vgnd vpwr scs8hd_mux2_1
XFILLER_61_135 vgnd vpwr scs8hd_decap_8
XFILLER_61_113 vgnd vpwr scs8hd_decap_8
XANTENNA_mem_right_ipin_1.scs8hd_dfxbp_1_0__CLK prog_clk vgnd vpwr scs8hd_diode_2
XFILLER_41_3 vpwr vgnd scs8hd_fill_2
Xmux_right_ipin_8.mux_l3_in_0_ mux_right_ipin_8.mux_l2_in_1_/X mux_right_ipin_8.mux_l2_in_0_/X
+ mux_right_ipin_8.mux_l3_in_1_/S mux_right_ipin_8.mux_l3_in_0_/X vgnd vpwr scs8hd_mux2_1
X_28_ _28_/HI _28_/LO vgnd vpwr scs8hd_conb_1
XFILLER_37_132 vpwr vgnd scs8hd_fill_2
XFILLER_52_102 vgnd vpwr scs8hd_decap_8
XANTENNA_mem_right_ipin_1.scs8hd_dfxbp_1_1__D mux_right_ipin_1.mux_l1_in_0_/S vgnd
+ vpwr scs8hd_diode_2
XFILLER_20_36 vpwr vgnd scs8hd_fill_2
XANTENNA_mux_right_ipin_1.mux_l1_in_1__S mux_right_ipin_1.mux_l1_in_0_/S vgnd vpwr
+ scs8hd_diode_2
XFILLER_43_135 vgnd vpwr scs8hd_decap_8
XFILLER_28_143 vgnd vpwr scs8hd_decap_3
XFILLER_61_10 vgnd vpwr scs8hd_decap_8
XFILLER_6_16 vgnd vpwr scs8hd_decap_3
XFILLER_6_27 vpwr vgnd scs8hd_fill_2
XFILLER_19_110 vgnd vpwr scs8hd_decap_4
XFILLER_19_121 vgnd vpwr scs8hd_fill_1
XANTENNA_mux_right_ipin_10.mux_l1_in_0__A1 chany_bottom_in[1] vgnd vpwr scs8hd_diode_2
XANTENNA_mux_right_ipin_7.mux_l2_in_1__A1 chany_top_in[2] vgnd vpwr scs8hd_diode_2
XFILLER_25_113 vgnd vpwr scs8hd_decap_8
XFILLER_25_135 vgnd vpwr scs8hd_decap_8
XANTENNA_mem_right_ipin_10.scs8hd_dfxbp_1_2__CLK prog_clk vgnd vpwr scs8hd_diode_2
XFILLER_31_57 vpwr vgnd scs8hd_fill_2
XFILLER_56_32 vpwr vgnd scs8hd_fill_2
XPHY_141 vgnd vpwr scs8hd_tapvpwrvgnd_1
XPHY_130 vgnd vpwr scs8hd_tapvpwrvgnd_1
XPHY_152 vgnd vpwr scs8hd_tapvpwrvgnd_1
Xmux_right_ipin_8.mux_l2_in_1_ chany_bottom_in[13] mux_right_ipin_8.mux_l1_in_2_/X
+ mux_right_ipin_8.mux_l2_in_3_/S mux_right_ipin_8.mux_l2_in_1_/X vgnd vpwr scs8hd_mux2_1
XPHY_163 vgnd vpwr scs8hd_tapvpwrvgnd_1
XPHY_174 vgnd vpwr scs8hd_tapvpwrvgnd_1
XPHY_185 vgnd vpwr scs8hd_tapvpwrvgnd_1
XPHY_196 vgnd vpwr scs8hd_tapvpwrvgnd_1
Xmux_right_ipin_12.mux_l4_in_0_ mux_right_ipin_12.mux_l3_in_1_/X mux_right_ipin_12.mux_l3_in_0_/X
+ mux_right_ipin_12.mux_l4_in_0_/S mux_right_ipin_12.mux_l4_in_0_/X vgnd vpwr scs8hd_mux2_1
XFILLER_7_70 vpwr vgnd scs8hd_fill_2
XANTENNA_mux_right_ipin_5.mux_l2_in_3__A1 chany_top_in[16] vgnd vpwr scs8hd_diode_2
XANTENNA_mux_right_ipin_0.mux_l2_in_1__S mux_right_ipin_0.mux_l2_in_0_/S vgnd vpwr
+ scs8hd_diode_2
XANTENNA_mux_right_ipin_4.mux_l1_in_0__A0 chany_top_in[1] vgnd vpwr scs8hd_diode_2
XANTENNA_mux_right_ipin_7.mux_l3_in_0__A1 mux_right_ipin_7.mux_l2_in_0_/X vgnd vpwr
+ scs8hd_diode_2
XANTENNA_mux_right_ipin_15.mux_l2_in_2__A0 chany_bottom_in[12] vgnd vpwr scs8hd_diode_2
Xmux_right_ipin_8.mux_l1_in_2_ chany_top_in[9] chany_bottom_in[9] mux_right_ipin_8.mux_l1_in_2_/S
+ mux_right_ipin_8.mux_l1_in_2_/X vgnd vpwr scs8hd_mux2_1
XFILLER_53_33 vpwr vgnd scs8hd_fill_2
XFILLER_53_11 vgnd vpwr scs8hd_decap_3
XFILLER_5_145 vgnd vpwr scs8hd_fill_1
XFILLER_5_123 vpwr vgnd scs8hd_fill_2
XFILLER_5_112 vpwr vgnd scs8hd_fill_2
X_61_ chany_bottom_in[12] chany_top_out[12] vgnd vpwr scs8hd_buf_2
Xmux_right_ipin_12.mux_l3_in_1_ mux_right_ipin_12.mux_l2_in_3_/X mux_right_ipin_12.mux_l2_in_2_/X
+ mux_right_ipin_12.mux_l3_in_0_/S mux_right_ipin_12.mux_l3_in_1_/X vgnd vpwr scs8hd_mux2_1
Xmux_right_ipin_3.mux_l2_in_0_ chany_bottom_in[2] mux_right_ipin_3.mux_l1_in_0_/X
+ mux_right_ipin_3.mux_l2_in_3_/S mux_right_ipin_3.mux_l2_in_0_/X vgnd vpwr scs8hd_mux2_1
XFILLER_4_93 vgnd vpwr scs8hd_decap_4
XFILLER_23_36 vpwr vgnd scs8hd_fill_2
XANTENNA_mem_right_ipin_3.scs8hd_dfxbp_1_0__D mux_right_ipin_2.mux_l4_in_0_/S vgnd
+ vpwr scs8hd_diode_2
XFILLER_2_137 vgnd vpwr scs8hd_decap_8
XFILLER_2_126 vpwr vgnd scs8hd_fill_2
XFILLER_64_87 vgnd vpwr scs8hd_decap_6
XFILLER_64_32 vgnd vpwr scs8hd_decap_12
Xmem_right_ipin_7.scs8hd_dfxbp_1_1_ prog_clk mux_right_ipin_7.mux_l1_in_0_/S mux_right_ipin_7.mux_l2_in_0_/S
+ mem_right_ipin_7.scs8hd_dfxbp_1_1_/QN vgnd vpwr scs8hd_dfxbp_1
XANTENNA_mux_right_ipin_15.mux_l3_in_1__A0 mux_right_ipin_15.mux_l2_in_3_/X vgnd vpwr
+ scs8hd_diode_2
XFILLER_13_80 vpwr vgnd scs8hd_fill_2
X_44_ chany_top_in[9] chany_bottom_out[9] vgnd vpwr scs8hd_buf_2
XFILLER_36_6 vgnd vpwr scs8hd_decap_8
XANTENNA_mux_right_ipin_5.mux_l2_in_2__S mux_right_ipin_5.mux_l2_in_0_/S vgnd vpwr
+ scs8hd_diode_2
XFILLER_18_14 vpwr vgnd scs8hd_fill_2
Xmux_right_ipin_12.mux_l2_in_2_ chany_bottom_in[17] chany_top_in[13] mux_right_ipin_12.mux_l2_in_0_/S
+ mux_right_ipin_12.mux_l2_in_2_/X vgnd vpwr scs8hd_mux2_1
XFILLER_1_3 vgnd vpwr scs8hd_decap_4
XFILLER_59_87 vpwr vgnd scs8hd_fill_2
XANTENNA_mux_right_ipin_2.mux_l2_in_1__A0 chany_bottom_in[7] vgnd vpwr scs8hd_diode_2
XFILLER_46_144 vpwr vgnd scs8hd_fill_2
XANTENNA_mux_right_ipin_9.mux_l3_in_0__S mux_right_ipin_9.mux_l3_in_0_/S vgnd vpwr
+ scs8hd_diode_2
XFILLER_34_3 vpwr vgnd scs8hd_fill_2
X_27_ _27_/HI _27_/LO vgnd vpwr scs8hd_conb_1
XFILLER_37_111 vgnd vpwr scs8hd_decap_4
XANTENNA_mux_right_ipin_15.mux_l4_in_0__A0 mux_right_ipin_15.mux_l3_in_1_/X vgnd vpwr
+ scs8hd_diode_2
XANTENNA_mem_left_ipin_0.scs8hd_dfxbp_1_2__D mux_left_ipin_0.mux_l2_in_2_/S vgnd vpwr
+ scs8hd_diode_2
XFILLER_29_46 vpwr vgnd scs8hd_fill_2
XFILLER_29_68 vpwr vgnd scs8hd_fill_2
XFILLER_45_12 vpwr vgnd scs8hd_fill_2
XFILLER_61_66 vpwr vgnd scs8hd_fill_2
XANTENNA__34__A chany_top_in[19] vgnd vpwr scs8hd_diode_2
XANTENNA_mux_right_ipin_0.mux_l2_in_3__A0 _22_/HI vgnd vpwr scs8hd_diode_2
XFILLER_34_125 vpwr vgnd scs8hd_fill_2
XANTENNA_mux_right_ipin_2.mux_l3_in_0__A0 mux_right_ipin_2.mux_l2_in_1_/X vgnd vpwr
+ scs8hd_diode_2
XFILLER_15_37 vgnd vpwr scs8hd_decap_3
XFILLER_15_59 vpwr vgnd scs8hd_fill_2
XFILLER_56_88 vpwr vgnd scs8hd_fill_2
XANTENNA_mem_right_ipin_8.scs8hd_dfxbp_1_2__CLK prog_clk vgnd vpwr scs8hd_diode_2
XPHY_120 vgnd vpwr scs8hd_decap_3
XPHY_142 vgnd vpwr scs8hd_tapvpwrvgnd_1
XPHY_131 vgnd vpwr scs8hd_tapvpwrvgnd_1
XPHY_153 vgnd vpwr scs8hd_tapvpwrvgnd_1
XPHY_164 vgnd vpwr scs8hd_tapvpwrvgnd_1
XFILLER_16_125 vgnd vpwr scs8hd_decap_12
XPHY_175 vgnd vpwr scs8hd_tapvpwrvgnd_1
Xmux_right_ipin_8.mux_l2_in_0_ mux_right_ipin_8.mux_l1_in_1_/X mux_right_ipin_8.mux_l1_in_0_/X
+ mux_right_ipin_8.mux_l2_in_3_/S mux_right_ipin_8.mux_l2_in_0_/X vgnd vpwr scs8hd_mux2_1
XPHY_186 vgnd vpwr scs8hd_tapvpwrvgnd_1
XPHY_197 vgnd vpwr scs8hd_tapvpwrvgnd_1
XPHY_0 vgnd vpwr scs8hd_decap_3
XANTENNA_mem_right_ipin_6.scs8hd_dfxbp_1_0__CLK prog_clk vgnd vpwr scs8hd_diode_2
XANTENNA_mux_right_ipin_8.mux_l4_in_0__S mux_right_ipin_8.mux_l4_in_0_/S vgnd vpwr
+ scs8hd_diode_2
XFILLER_7_93 vpwr vgnd scs8hd_fill_2
XANTENNA_mem_right_ipin_3.scs8hd_dfxbp_1_3__D mux_right_ipin_3.mux_l3_in_1_/S vgnd
+ vpwr scs8hd_diode_2
XANTENNA_mux_right_ipin_13.mux_l1_in_2__S mux_right_ipin_13.mux_l1_in_1_/S vgnd vpwr
+ scs8hd_diode_2
XANTENNA_mux_right_ipin_4.mux_l1_in_0__A1 chany_bottom_in[1] vgnd vpwr scs8hd_diode_2
XANTENNA_mux_right_ipin_15.mux_l2_in_2__A1 chany_top_in[4] vgnd vpwr scs8hd_diode_2
XANTENNA_mem_right_ipin_15.scs8hd_dfxbp_1_2__CLK prog_clk vgnd vpwr scs8hd_diode_2
Xmux_right_ipin_8.mux_l1_in_1_ chany_top_in[3] chany_bottom_in[3] mux_right_ipin_8.mux_l1_in_2_/S
+ mux_right_ipin_8.mux_l1_in_1_/X vgnd vpwr scs8hd_mux2_1
XFILLER_37_13 vpwr vgnd scs8hd_fill_2
XFILLER_37_57 vpwr vgnd scs8hd_fill_2
XFILLER_53_78 vgnd vpwr scs8hd_decap_6
XANTENNA__42__A chany_top_in[11] vgnd vpwr scs8hd_diode_2
X_60_ chany_bottom_in[13] chany_top_out[13] vgnd vpwr scs8hd_buf_2