* NGSPICE file created from cby_1__1_.ext - technology: EFS8A

* Black-box entry subcircuit for scs8hd_decap_12 abstract view
.subckt scs8hd_decap_12 vgnd vpwr
.ends

* Black-box entry subcircuit for scs8hd_fill_2 abstract view
.subckt scs8hd_fill_2 vpwr vgnd
.ends

* Black-box entry subcircuit for scs8hd_decap_8 abstract view
.subckt scs8hd_decap_8 vgnd vpwr
.ends

* Black-box entry subcircuit for scs8hd_diode_2 abstract view
.subckt scs8hd_diode_2 DIODE vgnd vpwr
.ends

* Black-box entry subcircuit for scs8hd_buf_2 abstract view
.subckt scs8hd_buf_2 A X vgnd vpwr
.ends

* Black-box entry subcircuit for scs8hd_ebufn_2 abstract view
.subckt scs8hd_ebufn_2 A TEB Z vgnd vpwr
.ends

* Black-box entry subcircuit for scs8hd_decap_3 abstract view
.subckt scs8hd_decap_3 vgnd vpwr
.ends

* Black-box entry subcircuit for scs8hd_decap_4 abstract view
.subckt scs8hd_decap_4 vgnd vpwr
.ends

* Black-box entry subcircuit for scs8hd_nor4_4 abstract view
.subckt scs8hd_nor4_4 A B C D Y vgnd vpwr
.ends

* Black-box entry subcircuit for scs8hd_lpflow_inputisolatch_1 abstract view
.subckt scs8hd_lpflow_inputisolatch_1 D Q SLEEPB vgnd vpwr
.ends

* Black-box entry subcircuit for scs8hd_decap_6 abstract view
.subckt scs8hd_decap_6 vgnd vpwr
.ends

* Black-box entry subcircuit for scs8hd_tapvpwrvgnd_1 abstract view
.subckt scs8hd_tapvpwrvgnd_1 vgnd vpwr
.ends

* Black-box entry subcircuit for scs8hd_inv_1 abstract view
.subckt scs8hd_inv_1 A Y vgnd vpwr
.ends

* Black-box entry subcircuit for scs8hd_conb_1 abstract view
.subckt scs8hd_conb_1 HI LO vgnd vpwr
.ends

* Black-box entry subcircuit for scs8hd_inv_8 abstract view
.subckt scs8hd_inv_8 A Y vgnd vpwr
.ends

* Black-box entry subcircuit for scs8hd_fill_1 abstract view
.subckt scs8hd_fill_1 vgnd vpwr
.ends

* Black-box entry subcircuit for scs8hd_or4_4 abstract view
.subckt scs8hd_or4_4 A B C D X vgnd vpwr
.ends

* Black-box entry subcircuit for scs8hd_nor2_4 abstract view
.subckt scs8hd_nor2_4 A B Y vgnd vpwr
.ends

* Black-box entry subcircuit for scs8hd_or2_4 abstract view
.subckt scs8hd_or2_4 A B X vgnd vpwr
.ends

.subckt cby_1__1_ address[0] address[1] address[2] address[3] address[4] address[5]
+ chany_bottom_in[0] chany_bottom_in[1] chany_bottom_in[2] chany_bottom_in[3] chany_bottom_in[4]
+ chany_bottom_in[5] chany_bottom_in[6] chany_bottom_in[7] chany_bottom_in[8] chany_bottom_out[0]
+ chany_bottom_out[1] chany_bottom_out[2] chany_bottom_out[3] chany_bottom_out[4]
+ chany_bottom_out[5] chany_bottom_out[6] chany_bottom_out[7] chany_bottom_out[8]
+ chany_top_in[0] chany_top_in[1] chany_top_in[2] chany_top_in[3] chany_top_in[4]
+ chany_top_in[5] chany_top_in[6] chany_top_in[7] chany_top_in[8] chany_top_out[0]
+ chany_top_out[1] chany_top_out[2] chany_top_out[3] chany_top_out[4] chany_top_out[5]
+ chany_top_out[6] chany_top_out[7] chany_top_out[8] data_in enable left_grid_pin_1_
+ left_grid_pin_5_ left_grid_pin_9_ right_grid_pin_3_ right_grid_pin_7_ vpwr vgnd
XFILLER_22_199 vgnd vpwr scs8hd_decap_12
XFILLER_22_166 vgnd vpwr scs8hd_decap_12
XFILLER_3_23 vpwr vgnd scs8hd_fill_2
XFILLER_27_203 vgnd vpwr scs8hd_decap_8
XFILLER_12_32 vpwr vgnd scs8hd_fill_2
XFILLER_6_107 vpwr vgnd scs8hd_fill_2
XANTENNA_mem_left_ipin_0.LATCH_1_.latch_SLEEPB _42_/Y vgnd vpwr scs8hd_diode_2
XANTENNA_mux_left_ipin_0.mux_l2_in_0_.TGATE_0_.scs8hd_ebufn_2_TEB mem_left_ipin_0.LATCH_3_.latch/Q
+ vgnd vpwr scs8hd_diode_2
X_66_ chany_top_in[6] chany_bottom_out[6] vgnd vpwr scs8hd_buf_2
Xmux_right_ipin_0.mux_l1_in_0_.TGATE_2_.scs8hd_ebufn_2 mux_right_ipin_0.INVTX1_2_.scs8hd_inv_1/Y
+ mem_right_ipin_0.LATCH_2_.latch/Q mux_right_ipin_0.mux_l1_in_0_.TGATE_0_.scs8hd_ebufn_2/Z
+ vgnd vpwr scs8hd_ebufn_2
XFILLER_5_184 vgnd vpwr scs8hd_decap_12
XFILLER_23_86 vgnd vpwr scs8hd_decap_12
XANTENNA_mux_right_ipin_1.mux_l2_in_0_.TGATE_1_.scs8hd_ebufn_2_TEB _32_/Y vgnd vpwr
+ scs8hd_diode_2
XFILLER_21_209 vgnd vpwr scs8hd_decap_3
XFILLER_9_77 vgnd vpwr scs8hd_decap_4
XFILLER_2_121 vpwr vgnd scs8hd_fill_2
X_49_ address[1] address[2] _52_/A _46_/D _49_/Y vgnd vpwr scs8hd_nor4_4
XFILLER_29_74 vgnd vpwr scs8hd_decap_12
XFILLER_20_32 vgnd vpwr scs8hd_decap_12
Xmem_right_ipin_2.LATCH_1_.latch data_in _34_/A _57_/Y vgnd vpwr scs8hd_lpflow_inputisolatch_1
XFILLER_13_3 vgnd vpwr scs8hd_decap_3
XFILLER_6_23 vpwr vgnd scs8hd_fill_2
XFILLER_15_98 vpwr vgnd scs8hd_fill_2
XFILLER_1_208 vgnd vpwr scs8hd_decap_4
XFILLER_31_156 vgnd vpwr scs8hd_decap_12
XFILLER_31_75 vgnd vpwr scs8hd_decap_12
XFILLER_22_178 vgnd vpwr scs8hd_decap_12
XANTENNA_mux_left_ipin_0.mux_l1_in_1_.TGATE_0_.scs8hd_ebufn_2_A mux_left_ipin_0.INVTX1_3_.scs8hd_inv_1/Y
+ vgnd vpwr scs8hd_diode_2
XFILLER_13_156 vgnd vpwr scs8hd_decap_12
XFILLER_13_123 vpwr vgnd scs8hd_fill_2
XFILLER_13_101 vpwr vgnd scs8hd_fill_2
XFILLER_9_127 vpwr vgnd scs8hd_fill_2
XFILLER_3_57 vpwr vgnd scs8hd_fill_2
XFILLER_12_55 vpwr vgnd scs8hd_fill_2
XFILLER_10_104 vpwr vgnd scs8hd_fill_2
X_65_ chany_top_in[7] chany_bottom_out[7] vgnd vpwr scs8hd_buf_2
XFILLER_5_196 vgnd vpwr scs8hd_decap_12
XFILLER_23_98 vgnd vpwr scs8hd_decap_12
XFILLER_9_34 vgnd vpwr scs8hd_decap_4
XFILLER_0_58 vpwr vgnd scs8hd_fill_2
XFILLER_20_210 vpwr vgnd scs8hd_fill_2
X_48_ _40_/A address[2] address[0] _46_/D _48_/Y vgnd vpwr scs8hd_nor4_4
XFILLER_18_32 vgnd vpwr scs8hd_decap_12
Xmux_left_ipin_1.mux_l2_in_0_.TGATE_0_.scs8hd_ebufn_2 mux_left_ipin_1.mux_l1_in_0_.TGATE_1_.scs8hd_ebufn_2/Z
+ _30_/A mux_left_ipin_1.tap_buf4_0_.scs8hd_inv_1/A vgnd vpwr scs8hd_ebufn_2
XANTENNA_mem_right_ipin_0.LATCH_5_.latch_D data_in vgnd vpwr scs8hd_diode_2
XFILLER_15_7 vpwr vgnd scs8hd_fill_2
XANTENNA_mux_left_ipin_1.mux_l2_in_0_.TGATE_0_.scs8hd_ebufn_2_A mux_left_ipin_1.mux_l1_in_0_.TGATE_1_.scs8hd_ebufn_2/Z
+ vgnd vpwr scs8hd_diode_2
XANTENNA_mem_right_ipin_2.LATCH_1_.latch_D data_in vgnd vpwr scs8hd_diode_2
XFILLER_29_86 vgnd vpwr scs8hd_decap_12
XFILLER_29_53 vpwr vgnd scs8hd_fill_2
XFILLER_20_44 vgnd vpwr scs8hd_decap_12
XFILLER_1_90 vpwr vgnd scs8hd_fill_2
XANTENNA_mux_right_ipin_0.INVTX1_2_.scs8hd_inv_1_A chany_bottom_in[2] vgnd vpwr scs8hd_diode_2
XFILLER_19_184 vgnd vpwr scs8hd_decap_12
XFILLER_6_79 vpwr vgnd scs8hd_fill_2
XFILLER_25_110 vgnd vpwr scs8hd_decap_12
XFILLER_15_22 vpwr vgnd scs8hd_fill_2
XFILLER_15_11 vgnd vpwr scs8hd_decap_4
XFILLER_31_168 vgnd vpwr scs8hd_decap_12
XFILLER_31_87 vgnd vpwr scs8hd_decap_6
XFILLER_31_32 vgnd vpwr scs8hd_decap_12
XPHY_160 vgnd vpwr scs8hd_tapvpwrvgnd_1
XFILLER_16_154 vgnd vpwr scs8hd_decap_12
XFILLER_30_190 vgnd vpwr scs8hd_decap_12
XFILLER_26_32 vgnd vpwr scs8hd_decap_12
XFILLER_13_168 vgnd vpwr scs8hd_decap_12
XANTENNA_mem_left_ipin_0.LATCH_2_.latch_D data_in vgnd vpwr scs8hd_diode_2
XANTENNA_mem_left_ipin_1.LATCH_0_.latch_D data_in vgnd vpwr scs8hd_diode_2
XFILLER_12_190 vgnd vpwr scs8hd_decap_12
X_81_ chany_bottom_in[0] chany_top_out[0] vgnd vpwr scs8hd_buf_2
XFILLER_3_36 vpwr vgnd scs8hd_fill_2
XFILLER_12_23 vpwr vgnd scs8hd_fill_2
X_64_ chany_top_in[8] chany_bottom_out[8] vgnd vpwr scs8hd_buf_2
XFILLER_15_208 vgnd vpwr scs8hd_decap_4
XANTENNA_mux_right_ipin_0.tap_buf4_0_.scs8hd_inv_1_A mux_right_ipin_0.tap_buf4_0_.scs8hd_inv_1/A
+ vgnd vpwr scs8hd_diode_2
XFILLER_4_90 vpwr vgnd scs8hd_fill_2
XFILLER_9_13 vpwr vgnd scs8hd_fill_2
XFILLER_3_3 vgnd vpwr scs8hd_decap_4
XFILLER_9_57 vpwr vgnd scs8hd_fill_2
X_47_ _40_/A address[2] _52_/A _46_/D _47_/Y vgnd vpwr scs8hd_nor4_4
XFILLER_18_44 vgnd vpwr scs8hd_decap_12
Xmux_left_ipin_1.tap_buf4_0_.scs8hd_inv_1 mux_left_ipin_1.tap_buf4_0_.scs8hd_inv_1/A
+ right_grid_pin_7_ vgnd vpwr scs8hd_inv_1
XANTENNA_mux_right_ipin_2.INVTX1_0_.scs8hd_inv_1_A chany_bottom_in[4] vgnd vpwr scs8hd_diode_2
Xmux_right_ipin_0.INVTX1_2_.scs8hd_inv_1 chany_bottom_in[2] mux_right_ipin_0.INVTX1_2_.scs8hd_inv_1/Y
+ vgnd vpwr scs8hd_inv_1
XFILLER_20_56 vgnd vpwr scs8hd_decap_12
XFILLER_29_98 vgnd vpwr scs8hd_decap_12
XFILLER_28_141 vgnd vpwr scs8hd_decap_12
XFILLER_19_196 vgnd vpwr scs8hd_decap_12
XFILLER_31_44 vgnd vpwr scs8hd_decap_12
XFILLER_16_166 vgnd vpwr scs8hd_decap_12
Xmux_left_ipin_0.INVTX1_1_.scs8hd_inv_1 chany_top_in[0] mux_left_ipin_0.INVTX1_1_.scs8hd_inv_1/Y
+ vgnd vpwr scs8hd_inv_1
XANTENNA_mem_right_ipin_1.LATCH_0_.latch_SLEEPB _56_/Y vgnd vpwr scs8hd_diode_2
XFILLER_31_125 vgnd vpwr scs8hd_decap_12
XPHY_161 vgnd vpwr scs8hd_tapvpwrvgnd_1
XPHY_150 vgnd vpwr scs8hd_tapvpwrvgnd_1
XFILLER_26_44 vgnd vpwr scs8hd_decap_12
XFILLER_13_114 vpwr vgnd scs8hd_fill_2
XFILLER_9_118 vpwr vgnd scs8hd_fill_2
X_80_ chany_bottom_in[1] chany_top_out[1] vgnd vpwr scs8hd_buf_2
XANTENNA_mux_left_ipin_0.mux_l1_in_0_.TGATE_1_.scs8hd_ebufn_2_TEB mem_left_ipin_0.LATCH_1_.latch/Q
+ vgnd vpwr scs8hd_diode_2
XFILLER_8_151 vpwr vgnd scs8hd_fill_2
Xmem_right_ipin_0.LATCH_4_.latch data_in mem_right_ipin_0.LATCH_4_.latch/Q _46_/Y
+ vgnd vpwr scs8hd_lpflow_inputisolatch_1
XFILLER_12_68 vpwr vgnd scs8hd_fill_2
Xmux_left_ipin_0.mux_l2_in_0_.TGATE_0_.scs8hd_ebufn_2 mux_left_ipin_0.mux_l1_in_0_.TGATE_0_.scs8hd_ebufn_2/Z
+ mem_left_ipin_0.LATCH_3_.latch/Q mux_left_ipin_0.tap_buf4_0_.scs8hd_inv_1/A vgnd
+ vpwr scs8hd_ebufn_2
XFILLER_5_132 vpwr vgnd scs8hd_fill_2
XFILLER_5_143 vpwr vgnd scs8hd_fill_2
X_63_ _63_/HI _63_/LO vgnd vpwr scs8hd_conb_1
XANTENNA_mux_right_ipin_0.mux_l1_in_0_.TGATE_2_.scs8hd_ebufn_2_A mux_right_ipin_0.INVTX1_2_.scs8hd_inv_1/Y
+ vgnd vpwr scs8hd_diode_2
XFILLER_0_27 vpwr vgnd scs8hd_fill_2
XFILLER_2_157 vgnd vpwr scs8hd_decap_12
XFILLER_29_3 vgnd vpwr scs8hd_decap_12
X_46_ address[1] _39_/B address[0] _46_/D _46_/Y vgnd vpwr scs8hd_nor4_4
XFILLER_18_56 vgnd vpwr scs8hd_decap_12
X_29_ enable _29_/Y vgnd vpwr scs8hd_inv_8
XFILLER_20_68 vgnd vpwr scs8hd_decap_12
XANTENNA_mux_right_ipin_0.mux_l2_in_0_.TGATE_0_.scs8hd_ebufn_2_A mux_right_ipin_0.mux_l1_in_0_.TGATE_0_.scs8hd_ebufn_2/Z
+ vgnd vpwr scs8hd_diode_2
XFILLER_6_37 vpwr vgnd scs8hd_fill_2
Xmem_right_ipin_1.LATCH_0_.latch data_in _33_/A _56_/Y vgnd vpwr scs8hd_lpflow_inputisolatch_1
XFILLER_31_56 vgnd vpwr scs8hd_decap_6
XFILLER_25_123 vgnd vpwr scs8hd_decap_12
XFILLER_15_57 vpwr vgnd scs8hd_fill_2
XFILLER_0_211 vgnd vpwr scs8hd_fill_1
XFILLER_31_137 vgnd vpwr scs8hd_decap_12
XPHY_162 vgnd vpwr scs8hd_tapvpwrvgnd_1
XPHY_151 vgnd vpwr scs8hd_tapvpwrvgnd_1
XPHY_140 vgnd vpwr scs8hd_tapvpwrvgnd_1
XFILLER_16_178 vgnd vpwr scs8hd_decap_12
Xmux_left_ipin_0.mux_l1_in_1_.TGATE_1_.scs8hd_ebufn_2 mux_left_ipin_0.INVTX1_4_.scs8hd_inv_1/Y
+ mem_left_ipin_0.LATCH_1_.latch/Q mux_left_ipin_0.mux_l1_in_1_.TGATE_0_.scs8hd_ebufn_2/Z
+ vgnd vpwr scs8hd_ebufn_2
XFILLER_11_3 vpwr vgnd scs8hd_fill_2
XFILLER_26_56 vgnd vpwr scs8hd_decap_12
XFILLER_7_91 vpwr vgnd scs8hd_fill_2
XFILLER_21_192 vgnd vpwr scs8hd_decap_3
XANTENNA_mux_left_ipin_0.mux_l1_in_1_.TGATE_0_.scs8hd_ebufn_2_TEB mem_left_ipin_0.LATCH_0_.latch/Q
+ vgnd vpwr scs8hd_diode_2
XFILLER_5_100 vpwr vgnd scs8hd_fill_2
X_62_ _62_/HI _62_/LO vgnd vpwr scs8hd_conb_1
XFILLER_2_125 vpwr vgnd scs8hd_fill_2
XFILLER_2_169 vgnd vpwr scs8hd_decap_12
XFILLER_20_202 vgnd vpwr scs8hd_decap_8
XFILLER_18_68 vgnd vpwr scs8hd_decap_12
Xmem_left_ipin_0.LATCH_4_.latch data_in mem_left_ipin_0.LATCH_4_.latch/Q _39_/Y vgnd
+ vpwr scs8hd_lpflow_inputisolatch_1
X_45_ address[1] _39_/B _52_/A _46_/D _45_/Y vgnd vpwr scs8hd_nor4_4
XANTENNA__23__A address[1] vgnd vpwr scs8hd_diode_2
X_28_ address[3] _28_/Y vgnd vpwr scs8hd_inv_8
XFILLER_1_71 vpwr vgnd scs8hd_fill_2
XFILLER_28_154 vgnd vpwr scs8hd_decap_12
XANTENNA_mux_right_ipin_0.mux_l1_in_0_.TGATE_0_.scs8hd_ebufn_2_TEB mem_right_ipin_0.LATCH_0_.latch/Q
+ vgnd vpwr scs8hd_diode_2
XFILLER_19_110 vgnd vpwr scs8hd_decap_12
XFILLER_10_91 vgnd vpwr scs8hd_fill_1
XFILLER_6_27 vpwr vgnd scs8hd_fill_2
XFILLER_25_135 vgnd vpwr scs8hd_decap_12
XFILLER_15_47 vgnd vpwr scs8hd_fill_1
XFILLER_31_149 vgnd vpwr scs8hd_decap_6
XPHY_163 vgnd vpwr scs8hd_tapvpwrvgnd_1
XPHY_152 vgnd vpwr scs8hd_tapvpwrvgnd_1
XFILLER_24_190 vgnd vpwr scs8hd_decap_12
XPHY_141 vgnd vpwr scs8hd_tapvpwrvgnd_1
XPHY_130 vgnd vpwr scs8hd_tapvpwrvgnd_1
XFILLER_22_105 vgnd vpwr scs8hd_decap_12
XFILLER_7_70 vgnd vpwr scs8hd_decap_4
XFILLER_26_68 vgnd vpwr scs8hd_decap_12
XFILLER_21_171 vgnd vpwr scs8hd_decap_12
XFILLER_13_127 vgnd vpwr scs8hd_decap_12
XANTENNA__31__A _31_/A vgnd vpwr scs8hd_diode_2
XANTENNA_mux_right_ipin_0.mux_l1_in_1_.TGATE_0_.scs8hd_ebufn_2_A mux_right_ipin_0.INVTX1_3_.scs8hd_inv_1/Y
+ vgnd vpwr scs8hd_diode_2
XANTENNA__26__A address[4] vgnd vpwr scs8hd_diode_2
XFILLER_10_108 vpwr vgnd scs8hd_fill_2
Xmem_left_ipin_1.LATCH_0_.latch data_in _31_/A _53_/Y vgnd vpwr scs8hd_lpflow_inputisolatch_1
X_61_ _61_/HI _61_/LO vgnd vpwr scs8hd_conb_1
XANTENNA_mux_left_ipin_0.INVTX1_3_.scs8hd_inv_1_A chany_top_in[4] vgnd vpwr scs8hd_diode_2
XFILLER_2_104 vpwr vgnd scs8hd_fill_2
XFILLER_4_82 vpwr vgnd scs8hd_fill_2
X_44_ address[3] _29_/Y _26_/Y address[5] _46_/D vgnd vpwr scs8hd_or4_4
XFILLER_1_3 vpwr vgnd scs8hd_fill_2
X_27_ address[5] _27_/Y vgnd vpwr scs8hd_inv_8
XFILLER_1_94 vpwr vgnd scs8hd_fill_2
XFILLER_29_57 vgnd vpwr scs8hd_decap_4
XFILLER_28_166 vgnd vpwr scs8hd_decap_12
XFILLER_20_15 vgnd vpwr scs8hd_decap_12
XANTENNA_mux_right_ipin_1.mux_l2_in_0_.TGATE_0_.scs8hd_ebufn_2_A mux_right_ipin_1.mux_l1_in_0_.TGATE_0_.scs8hd_ebufn_2/Z
+ vgnd vpwr scs8hd_diode_2
XANTENNA_mem_left_ipin_0.LATCH_5_.latch_D data_in vgnd vpwr scs8hd_diode_2
XANTENNA__34__A _34_/A vgnd vpwr scs8hd_diode_2
XFILLER_25_147 vgnd vpwr scs8hd_decap_12
XFILLER_15_37 vpwr vgnd scs8hd_fill_2
XFILLER_15_26 vpwr vgnd scs8hd_fill_2
XPHY_164 vgnd vpwr scs8hd_tapvpwrvgnd_1
XFILLER_31_106 vgnd vpwr scs8hd_decap_12
XPHY_153 vgnd vpwr scs8hd_tapvpwrvgnd_1
XPHY_142 vgnd vpwr scs8hd_tapvpwrvgnd_1
XPHY_131 vgnd vpwr scs8hd_tapvpwrvgnd_1
XPHY_120 vgnd vpwr scs8hd_tapvpwrvgnd_1
XANTENNA__29__A enable vgnd vpwr scs8hd_diode_2
XANTENNA_mem_right_ipin_0.LATCH_3_.latch_SLEEPB _47_/Y vgnd vpwr scs8hd_diode_2
XFILLER_22_117 vgnd vpwr scs8hd_decap_12
XPHY_0 vgnd vpwr scs8hd_decap_3
XFILLER_13_139 vgnd vpwr scs8hd_decap_12
XFILLER_16_80 vgnd vpwr scs8hd_decap_12
XFILLER_8_154 vgnd vpwr scs8hd_decap_12
XFILLER_12_27 vpwr vgnd scs8hd_fill_2
Xmux_left_ipin_1.mux_l1_in_0_.TGATE_0_.scs8hd_ebufn_2 mux_left_ipin_1.INVTX1_0_.scs8hd_inv_1/Y
+ _31_/A mux_left_ipin_1.mux_l1_in_0_.TGATE_1_.scs8hd_ebufn_2/Z vgnd vpwr scs8hd_ebufn_2
X_60_ _60_/HI _60_/LO vgnd vpwr scs8hd_conb_1
XANTENNA__42__A address[1] vgnd vpwr scs8hd_diode_2
XFILLER_23_59 vpwr vgnd scs8hd_fill_2
XFILLER_23_15 vgnd vpwr scs8hd_decap_12
XFILLER_4_61 vpwr vgnd scs8hd_fill_2
XFILLER_4_190 vgnd vpwr scs8hd_decap_12
XANTENNA__37__A address[4] vgnd vpwr scs8hd_diode_2
XFILLER_2_138 vpwr vgnd scs8hd_fill_2
XFILLER_3_7 vgnd vpwr scs8hd_fill_1
X_43_ address[1] address[2] address[0] _43_/D _43_/Y vgnd vpwr scs8hd_nor4_4
XFILLER_18_15 vgnd vpwr scs8hd_decap_12
XFILLER_7_208 vgnd vpwr scs8hd_decap_4
XFILLER_27_3 vgnd vpwr scs8hd_decap_12
XFILLER_24_80 vgnd vpwr scs8hd_decap_12
XFILLER_29_47 vpwr vgnd scs8hd_fill_2
XFILLER_20_27 vgnd vpwr scs8hd_decap_4
X_26_ address[4] _26_/Y vgnd vpwr scs8hd_inv_8
XANTENNA_mem_left_ipin_1.LATCH_0_.latch_SLEEPB _53_/Y vgnd vpwr scs8hd_diode_2
Xmux_right_ipin_1.tap_buf4_0_.scs8hd_inv_1 mux_right_ipin_1.tap_buf4_0_.scs8hd_inv_1/A
+ left_grid_pin_5_ vgnd vpwr scs8hd_inv_1
XFILLER_28_178 vgnd vpwr scs8hd_decap_12
XFILLER_19_123 vgnd vpwr scs8hd_decap_12
XANTENNA_mux_left_ipin_0.mux_l2_in_0_.TGATE_1_.scs8hd_ebufn_2_TEB mem_left_ipin_0.LATCH_4_.latch/Q
+ vgnd vpwr scs8hd_diode_2
XANTENNA__50__A address[1] vgnd vpwr scs8hd_diode_2
XFILLER_25_159 vgnd vpwr scs8hd_decap_12
XPHY_165 vgnd vpwr scs8hd_tapvpwrvgnd_1
XFILLER_31_118 vgnd vpwr scs8hd_decap_6
XFILLER_31_15 vgnd vpwr scs8hd_decap_12
XPHY_154 vgnd vpwr scs8hd_tapvpwrvgnd_1
XPHY_143 vgnd vpwr scs8hd_tapvpwrvgnd_1
XPHY_132 vgnd vpwr scs8hd_tapvpwrvgnd_1
XPHY_121 vgnd vpwr scs8hd_tapvpwrvgnd_1
XPHY_110 vgnd vpwr scs8hd_tapvpwrvgnd_1
XANTENNA__45__A address[1] vgnd vpwr scs8hd_diode_2
XFILLER_22_129 vgnd vpwr scs8hd_decap_12
XPHY_1 vgnd vpwr scs8hd_decap_3
XFILLER_26_15 vgnd vpwr scs8hd_decap_12
XFILLER_21_184 vgnd vpwr scs8hd_decap_8
XFILLER_13_118 vgnd vpwr scs8hd_decap_4
XFILLER_12_151 vpwr vgnd scs8hd_fill_2
XFILLER_8_166 vgnd vpwr scs8hd_decap_12
XFILLER_8_111 vpwr vgnd scs8hd_fill_2
XFILLER_3_19 vpwr vgnd scs8hd_fill_2
XFILLER_26_210 vpwr vgnd scs8hd_fill_2
XANTENNA__42__B address[2] vgnd vpwr scs8hd_diode_2
XFILLER_5_114 vpwr vgnd scs8hd_fill_2
XFILLER_5_136 vpwr vgnd scs8hd_fill_2
XFILLER_5_147 vgnd vpwr scs8hd_decap_12
XFILLER_4_40 vpwr vgnd scs8hd_fill_2
XFILLER_23_27 vgnd vpwr scs8hd_decap_12
XANTENNA__53__A address[0] vgnd vpwr scs8hd_diode_2
XANTENNA__37__B address[5] vgnd vpwr scs8hd_diode_2
XFILLER_13_71 vpwr vgnd scs8hd_fill_2
X_42_ address[1] address[2] _52_/A _43_/D _42_/Y vgnd vpwr scs8hd_nor4_4
XFILLER_1_150 vpwr vgnd scs8hd_fill_2
XFILLER_1_161 vpwr vgnd scs8hd_fill_2
XFILLER_18_27 vgnd vpwr scs8hd_decap_4
XANTENNA__48__A _40_/A vgnd vpwr scs8hd_diode_2
XFILLER_29_15 vgnd vpwr scs8hd_decap_12
X_25_ address[0] _52_/A vgnd vpwr scs8hd_inv_8
XFILLER_10_83 vpwr vgnd scs8hd_fill_2
XFILLER_10_61 vpwr vgnd scs8hd_fill_2
XANTENNA_mux_right_ipin_2.mux_l2_in_0_.TGATE_0_.scs8hd_ebufn_2_A mux_right_ipin_2.mux_l1_in_0_.TGATE_0_.scs8hd_ebufn_2/Z
+ vgnd vpwr scs8hd_diode_2
XANTENNA__50__B address[2] vgnd vpwr scs8hd_diode_2
XFILLER_19_135 vgnd vpwr scs8hd_decap_12
Xmux_left_ipin_0.mux_l1_in_0_.TGATE_0_.scs8hd_ebufn_2 mux_left_ipin_0.INVTX1_0_.scs8hd_inv_1/Y
+ mem_left_ipin_0.LATCH_0_.latch/Q mux_left_ipin_0.mux_l1_in_0_.TGATE_0_.scs8hd_ebufn_2/Z
+ vgnd vpwr scs8hd_ebufn_2
XANTENNA_mux_left_ipin_0.mux_l1_in_0_.TGATE_0_.scs8hd_ebufn_2_A mux_left_ipin_0.INVTX1_0_.scs8hd_inv_1/Y
+ vgnd vpwr scs8hd_diode_2
XFILLER_31_27 vgnd vpwr scs8hd_decap_4
XFILLER_18_190 vgnd vpwr scs8hd_decap_12
XFILLER_16_127 vgnd vpwr scs8hd_decap_12
XFILLER_16_105 vgnd vpwr scs8hd_decap_12
XPHY_100 vgnd vpwr scs8hd_tapvpwrvgnd_1
XANTENNA__45__B _39_/B vgnd vpwr scs8hd_diode_2
XPHY_155 vgnd vpwr scs8hd_tapvpwrvgnd_1
XPHY_144 vgnd vpwr scs8hd_tapvpwrvgnd_1
XPHY_133 vgnd vpwr scs8hd_tapvpwrvgnd_1
XPHY_122 vgnd vpwr scs8hd_tapvpwrvgnd_1
XPHY_111 vgnd vpwr scs8hd_tapvpwrvgnd_1
XFILLER_11_7 vgnd vpwr scs8hd_decap_4
XPHY_2 vgnd vpwr scs8hd_decap_3
XFILLER_30_141 vgnd vpwr scs8hd_decap_12
XFILLER_26_27 vgnd vpwr scs8hd_decap_4
XFILLER_16_93 vgnd vpwr scs8hd_decap_12
XFILLER_8_178 vgnd vpwr scs8hd_decap_12
XFILLER_8_101 vgnd vpwr scs8hd_fill_1
XANTENNA__56__A address[0] vgnd vpwr scs8hd_diode_2
XANTENNA__42__C _52_/A vgnd vpwr scs8hd_diode_2
XFILLER_5_104 vgnd vpwr scs8hd_fill_1
XFILLER_5_159 vgnd vpwr scs8hd_decap_12
XFILLER_23_39 vgnd vpwr scs8hd_decap_12
Xmux_left_ipin_1.mux_l2_in_0_.TGATE_1_.scs8hd_ebufn_2 _60_/HI _30_/Y mux_left_ipin_1.tap_buf4_0_.scs8hd_inv_1/A
+ vgnd vpwr scs8hd_ebufn_2
XANTENNA__37__C address[3] vgnd vpwr scs8hd_diode_2
XANTENNA_mux_right_ipin_0.mux_l2_in_0_.TGATE_0_.scs8hd_ebufn_2_TEB mem_right_ipin_0.LATCH_3_.latch/Q
+ vgnd vpwr scs8hd_diode_2
XANTENNA__53__B _52_/B vgnd vpwr scs8hd_diode_2
X_41_ _40_/A address[2] address[0] _43_/D _41_/Y vgnd vpwr scs8hd_nor4_4
XFILLER_1_140 vpwr vgnd scs8hd_fill_2
XFILLER_1_184 vgnd vpwr scs8hd_decap_12
XANTENNA_mux_right_ipin_0.INVTX1_3_.scs8hd_inv_1_A chany_top_in[2] vgnd vpwr scs8hd_diode_2
XFILLER_24_93 vgnd vpwr scs8hd_decap_12
XANTENNA__64__A chany_top_in[8] vgnd vpwr scs8hd_diode_2
XFILLER_6_210 vpwr vgnd scs8hd_fill_2
XANTENNA_mem_right_ipin_0.LATCH_1_.latch_D data_in vgnd vpwr scs8hd_diode_2
XANTENNA__48__B address[2] vgnd vpwr scs8hd_diode_2
XFILLER_1_75 vpwr vgnd scs8hd_fill_2
XFILLER_1_53 vpwr vgnd scs8hd_fill_2
X_24_ address[2] _39_/B vgnd vpwr scs8hd_inv_8
XFILLER_29_27 vgnd vpwr scs8hd_decap_12
XANTENNA__50__C address[0] vgnd vpwr scs8hd_diode_2
XFILLER_19_147 vgnd vpwr scs8hd_decap_12
XFILLER_15_18 vpwr vgnd scs8hd_fill_2
XPHY_156 vgnd vpwr scs8hd_tapvpwrvgnd_1
XPHY_145 vgnd vpwr scs8hd_tapvpwrvgnd_1
XPHY_134 vgnd vpwr scs8hd_tapvpwrvgnd_1
XPHY_123 vgnd vpwr scs8hd_tapvpwrvgnd_1
XFILLER_16_139 vgnd vpwr scs8hd_decap_12
XFILLER_16_117 vgnd vpwr scs8hd_decap_6
XPHY_112 vgnd vpwr scs8hd_tapvpwrvgnd_1
XPHY_101 vgnd vpwr scs8hd_tapvpwrvgnd_1
XANTENNA__45__C _52_/A vgnd vpwr scs8hd_diode_2
XPHY_3 vgnd vpwr scs8hd_decap_3
XFILLER_21_197 vgnd vpwr scs8hd_decap_12
XANTENNA__56__B _56_/B vgnd vpwr scs8hd_diode_2
XANTENNA__72__A chany_top_in[0] vgnd vpwr scs8hd_diode_2
XANTENNA__42__D _43_/D vgnd vpwr scs8hd_diode_2
XFILLER_27_60 vgnd vpwr scs8hd_fill_1
XANTENNA__67__A chany_top_in[5] vgnd vpwr scs8hd_diode_2
XFILLER_2_108 vpwr vgnd scs8hd_fill_2
XFILLER_4_86 vpwr vgnd scs8hd_fill_2
XANTENNA__37__D _29_/Y vgnd vpwr scs8hd_diode_2
XANTENNA_mux_right_ipin_2.INVTX1_1_.scs8hd_inv_1_A chany_top_in[4] vgnd vpwr scs8hd_diode_2
X_40_ _40_/A address[2] _52_/A _43_/D _40_/Y vgnd vpwr scs8hd_nor4_4
XFILLER_1_196 vgnd vpwr scs8hd_decap_12
Xmem_right_ipin_0.LATCH_5_.latch data_in mem_right_ipin_0.LATCH_5_.latch/Q _45_/Y
+ vgnd vpwr scs8hd_lpflow_inputisolatch_1
XANTENNA_mux_left_ipin_0.mux_l1_in_0_.TGATE_2_.scs8hd_ebufn_2_TEB mem_left_ipin_0.LATCH_2_.latch/Q
+ vgnd vpwr scs8hd_diode_2
XANTENNA__48__C address[0] vgnd vpwr scs8hd_diode_2
XFILLER_1_7 vpwr vgnd scs8hd_fill_2
XANTENNA__80__A chany_bottom_in[1] vgnd vpwr scs8hd_diode_2
X_23_ address[1] _40_/A vgnd vpwr scs8hd_inv_8
XFILLER_1_32 vpwr vgnd scs8hd_fill_2
XFILLER_29_39 vgnd vpwr scs8hd_decap_8
XANTENNA_mem_left_ipin_0.LATCH_3_.latch_SLEEPB _40_/Y vgnd vpwr scs8hd_diode_2
XFILLER_27_192 vgnd vpwr scs8hd_decap_3
XANTENNA__75__A chany_bottom_in[6] vgnd vpwr scs8hd_diode_2
XFILLER_19_159 vgnd vpwr scs8hd_decap_12
XFILLER_10_74 vpwr vgnd scs8hd_fill_2
XANTENNA__50__D _46_/D vgnd vpwr scs8hd_diode_2
XANTENNA_mem_right_ipin_0.LATCH_0_.latch_SLEEPB _50_/Y vgnd vpwr scs8hd_diode_2
XFILLER_25_3 vgnd vpwr scs8hd_decap_12
XANTENNA_mux_left_ipin_1.mux_l1_in_0_.TGATE_0_.scs8hd_ebufn_2_A mux_left_ipin_1.INVTX1_0_.scs8hd_inv_1/Y
+ vgnd vpwr scs8hd_diode_2
XPHY_157 vgnd vpwr scs8hd_tapvpwrvgnd_1
XPHY_146 vgnd vpwr scs8hd_tapvpwrvgnd_1
XPHY_135 vgnd vpwr scs8hd_tapvpwrvgnd_1
XFILLER_21_62 vgnd vpwr scs8hd_decap_12
XFILLER_21_51 vgnd vpwr scs8hd_decap_8
XPHY_124 vgnd vpwr scs8hd_tapvpwrvgnd_1
XPHY_113 vgnd vpwr scs8hd_tapvpwrvgnd_1
XPHY_102 vgnd vpwr scs8hd_tapvpwrvgnd_1
XANTENNA__45__D _46_/D vgnd vpwr scs8hd_diode_2
XFILLER_30_154 vgnd vpwr scs8hd_decap_12
XFILLER_15_184 vgnd vpwr scs8hd_decap_12
XFILLER_15_151 vgnd vpwr scs8hd_decap_12
Xmux_left_ipin_0.mux_l2_in_0_.TGATE_1_.scs8hd_ebufn_2 mux_left_ipin_0.mux_l1_in_1_.TGATE_0_.scs8hd_ebufn_2/Z
+ mem_left_ipin_0.LATCH_4_.latch/Q mux_left_ipin_0.tap_buf4_0_.scs8hd_inv_1/A vgnd
+ vpwr scs8hd_ebufn_2
XPHY_4 vgnd vpwr scs8hd_decap_3
XFILLER_7_53 vpwr vgnd scs8hd_fill_2
XFILLER_21_110 vgnd vpwr scs8hd_decap_12
XFILLER_16_62 vpwr vgnd scs8hd_fill_2
XFILLER_16_51 vgnd vpwr scs8hd_decap_8
XANTENNA_mux_left_ipin_1.INVTX1_0_.scs8hd_inv_1_A chany_bottom_in[1] vgnd vpwr scs8hd_diode_2
XFILLER_12_154 vgnd vpwr scs8hd_decap_12
XFILLER_12_110 vgnd vpwr scs8hd_decap_8
XFILLER_26_202 vgnd vpwr scs8hd_decap_8
Xmem_right_ipin_1.LATCH_1_.latch data_in _32_/A _55_/Y vgnd vpwr scs8hd_lpflow_inputisolatch_1
XFILLER_4_32 vgnd vpwr scs8hd_fill_1
XFILLER_4_65 vpwr vgnd scs8hd_fill_2
XANTENNA__78__A chany_bottom_in[3] vgnd vpwr scs8hd_diode_2
XFILLER_13_85 vgnd vpwr scs8hd_fill_1
XFILLER_11_208 vgnd vpwr scs8hd_decap_4
XANTENNA__48__D _46_/D vgnd vpwr scs8hd_diode_2
Xmux_right_ipin_1.INVTX1_0_.scs8hd_inv_1 chany_bottom_in[3] mux_right_ipin_1.INVTX1_0_.scs8hd_inv_1/Y
+ vgnd vpwr scs8hd_inv_1
XFILLER_28_105 vgnd vpwr scs8hd_decap_12
XANTENNA_mux_left_ipin_0.mux_l1_in_1_.TGATE_1_.scs8hd_ebufn_2_TEB mem_left_ipin_0.LATCH_1_.latch/Q
+ vgnd vpwr scs8hd_diode_2
XFILLER_27_171 vgnd vpwr scs8hd_decap_12
XFILLER_19_62 vgnd vpwr scs8hd_decap_12
XFILLER_19_51 vgnd vpwr scs8hd_decap_8
XFILLER_10_20 vpwr vgnd scs8hd_fill_2
XFILLER_18_3 vgnd vpwr scs8hd_decap_12
Xmux_left_ipin_0.mux_l1_in_1_.TGATE_2_.scs8hd_ebufn_2 mux_left_ipin_0.INVTX1_5_.scs8hd_inv_1/Y
+ mem_left_ipin_0.LATCH_2_.latch/Q mux_left_ipin_0.mux_l1_in_1_.TGATE_0_.scs8hd_ebufn_2/Z
+ vgnd vpwr scs8hd_ebufn_2
XPHY_158 vgnd vpwr scs8hd_tapvpwrvgnd_1
XPHY_147 vgnd vpwr scs8hd_tapvpwrvgnd_1
XFILLER_24_141 vgnd vpwr scs8hd_decap_12
XPHY_136 vgnd vpwr scs8hd_tapvpwrvgnd_1
XFILLER_21_74 vgnd vpwr scs8hd_decap_12
XPHY_125 vgnd vpwr scs8hd_tapvpwrvgnd_1
XPHY_114 vgnd vpwr scs8hd_tapvpwrvgnd_1
XPHY_103 vgnd vpwr scs8hd_tapvpwrvgnd_1
Xmem_left_ipin_0.LATCH_5_.latch data_in mem_left_ipin_0.LATCH_5_.latch/Q _38_/Y vgnd
+ vpwr scs8hd_lpflow_inputisolatch_1
XFILLER_30_166 vgnd vpwr scs8hd_decap_12
XFILLER_15_196 vgnd vpwr scs8hd_decap_12
XFILLER_15_163 vgnd vpwr scs8hd_decap_12
XFILLER_7_87 vpwr vgnd scs8hd_fill_2
XPHY_5 vgnd vpwr scs8hd_decap_3
XFILLER_7_43 vpwr vgnd scs8hd_fill_2
XFILLER_16_74 vgnd vpwr scs8hd_decap_3
XFILLER_16_30 vgnd vpwr scs8hd_fill_1
XFILLER_12_166 vgnd vpwr scs8hd_decap_12
XFILLER_8_115 vpwr vgnd scs8hd_fill_2
XANTENNA_mux_right_ipin_0.mux_l1_in_0_.TGATE_1_.scs8hd_ebufn_2_TEB mem_right_ipin_0.LATCH_1_.latch/Q
+ vgnd vpwr scs8hd_diode_2
XFILLER_27_62 vgnd vpwr scs8hd_decap_12
XFILLER_27_40 vgnd vpwr scs8hd_decap_12
XFILLER_5_118 vpwr vgnd scs8hd_fill_2
XFILLER_4_11 vpwr vgnd scs8hd_fill_2
XFILLER_4_22 vgnd vpwr scs8hd_decap_4
XFILLER_4_140 vgnd vpwr scs8hd_decap_12
XFILLER_14_206 vgnd vpwr scs8hd_decap_6
XFILLER_13_97 vpwr vgnd scs8hd_fill_2
XFILLER_13_75 vpwr vgnd scs8hd_fill_2
XFILLER_13_53 vpwr vgnd scs8hd_fill_2
XFILLER_1_132 vpwr vgnd scs8hd_fill_2
XFILLER_1_154 vpwr vgnd scs8hd_fill_2
XFILLER_1_165 vgnd vpwr scs8hd_decap_12
XFILLER_6_202 vgnd vpwr scs8hd_decap_8
XFILLER_28_117 vgnd vpwr scs8hd_decap_12
Xmem_left_ipin_1.LATCH_1_.latch data_in _30_/A _52_/Y vgnd vpwr scs8hd_lpflow_inputisolatch_1
XFILLER_19_74 vgnd vpwr scs8hd_decap_12
XFILLER_10_87 vpwr vgnd scs8hd_fill_2
XFILLER_10_32 vpwr vgnd scs8hd_fill_2
XANTENNA_mux_right_ipin_2.mux_l1_in_0_.TGATE_0_.scs8hd_ebufn_2_TEB _35_/A vgnd vpwr
+ scs8hd_diode_2
XPHY_159 vgnd vpwr scs8hd_tapvpwrvgnd_1
XPHY_148 vgnd vpwr scs8hd_tapvpwrvgnd_1
XPHY_137 vgnd vpwr scs8hd_tapvpwrvgnd_1
XPHY_126 vgnd vpwr scs8hd_tapvpwrvgnd_1
XPHY_115 vgnd vpwr scs8hd_tapvpwrvgnd_1
XPHY_104 vgnd vpwr scs8hd_tapvpwrvgnd_1
Xmux_right_ipin_0.mux_l1_in_1_.TGATE_0_.scs8hd_ebufn_2 mux_right_ipin_0.INVTX1_3_.scs8hd_inv_1/Y
+ mem_right_ipin_0.LATCH_0_.latch/Q mux_right_ipin_0.mux_l1_in_1_.TGATE_0_.scs8hd_ebufn_2/Z
+ vgnd vpwr scs8hd_ebufn_2
XFILLER_30_178 vgnd vpwr scs8hd_decap_12
XFILLER_21_86 vgnd vpwr scs8hd_decap_12
XFILLER_15_175 vgnd vpwr scs8hd_decap_8
Xmux_right_ipin_0.INVTX1_4_.scs8hd_inv_1 chany_bottom_in[6] mux_right_ipin_0.INVTX1_4_.scs8hd_inv_1/Y
+ vgnd vpwr scs8hd_inv_1
XANTENNA_mux_right_ipin_0.mux_l1_in_0_.TGATE_0_.scs8hd_ebufn_2_A mux_right_ipin_0.INVTX1_0_.scs8hd_inv_1/Y
+ vgnd vpwr scs8hd_diode_2
XPHY_6 vgnd vpwr scs8hd_decap_3
XFILLER_7_66 vpwr vgnd scs8hd_fill_2
XFILLER_30_3 vgnd vpwr scs8hd_decap_12
XFILLER_21_123 vgnd vpwr scs8hd_decap_12
XFILLER_16_20 vgnd vpwr scs8hd_decap_8
XFILLER_12_178 vgnd vpwr scs8hd_decap_12
XFILLER_7_182 vgnd vpwr scs8hd_fill_1
XFILLER_27_52 vgnd vpwr scs8hd_decap_8
XANTENNA_mux_left_ipin_0.INVTX1_4_.scs8hd_inv_1_A chany_bottom_in[8] vgnd vpwr scs8hd_diode_2
XANTENNA_mux_right_ipin_0.mux_l1_in_1_.TGATE_0_.scs8hd_ebufn_2_TEB mem_right_ipin_0.LATCH_0_.latch/Q
+ vgnd vpwr scs8hd_diode_2
XFILLER_27_74 vgnd vpwr scs8hd_decap_12
Xmux_left_ipin_0.INVTX1_3_.scs8hd_inv_1 chany_top_in[4] mux_left_ipin_0.INVTX1_3_.scs8hd_inv_1/Y
+ vgnd vpwr scs8hd_inv_1
XANTENNA_mem_right_ipin_0.LATCH_4_.latch_D data_in vgnd vpwr scs8hd_diode_2
XFILLER_4_78 vpwr vgnd scs8hd_fill_2
XFILLER_4_152 vgnd vpwr scs8hd_fill_1
XANTENNA_mem_right_ipin_2.LATCH_0_.latch_D data_in vgnd vpwr scs8hd_diode_2
XFILLER_8_3 vpwr vgnd scs8hd_fill_2
XFILLER_1_144 vpwr vgnd scs8hd_fill_2
XFILLER_1_177 vgnd vpwr scs8hd_decap_6
XFILLER_10_210 vpwr vgnd scs8hd_fill_2
XFILLER_1_57 vpwr vgnd scs8hd_fill_2
XFILLER_28_129 vgnd vpwr scs8hd_decap_12
XFILLER_27_184 vgnd vpwr scs8hd_decap_8
XFILLER_19_86 vgnd vpwr scs8hd_decap_12
XANTENNA_mem_left_ipin_0.LATCH_1_.latch_D data_in vgnd vpwr scs8hd_diode_2
XPHY_116 vgnd vpwr scs8hd_tapvpwrvgnd_1
XPHY_105 vgnd vpwr scs8hd_tapvpwrvgnd_1
XPHY_149 vgnd vpwr scs8hd_tapvpwrvgnd_1
XFILLER_24_154 vgnd vpwr scs8hd_decap_12
XPHY_138 vgnd vpwr scs8hd_tapvpwrvgnd_1
XFILLER_21_98 vgnd vpwr scs8hd_decap_12
XPHY_127 vgnd vpwr scs8hd_tapvpwrvgnd_1
XFILLER_15_121 vgnd vpwr scs8hd_fill_1
XPHY_7 vgnd vpwr scs8hd_decap_3
XFILLER_23_3 vgnd vpwr scs8hd_decap_12
XFILLER_21_135 vgnd vpwr scs8hd_decap_12
XFILLER_7_12 vpwr vgnd scs8hd_fill_2
XFILLER_20_190 vgnd vpwr scs8hd_decap_12
XFILLER_16_32 vgnd vpwr scs8hd_decap_12
Xmux_left_ipin_1.mux_l1_in_0_.TGATE_1_.scs8hd_ebufn_2 mux_left_ipin_1.INVTX1_1_.scs8hd_inv_1/Y
+ _31_/Y mux_left_ipin_1.mux_l1_in_0_.TGATE_1_.scs8hd_ebufn_2/Z vgnd vpwr scs8hd_ebufn_2
XFILLER_8_139 vgnd vpwr scs8hd_decap_12
XFILLER_8_128 vgnd vpwr scs8hd_decap_8
XFILLER_7_150 vgnd vpwr scs8hd_decap_12
XANTENNA_mux_left_ipin_0.mux_l2_in_0_.TGATE_2_.scs8hd_ebufn_2_TEB mem_left_ipin_0.LATCH_5_.latch/Q
+ vgnd vpwr scs8hd_diode_2
XFILLER_27_86 vgnd vpwr scs8hd_decap_12
Xmux_left_ipin_0.tap_buf4_0_.scs8hd_inv_1 mux_left_ipin_0.tap_buf4_0_.scs8hd_inv_1/A
+ right_grid_pin_3_ vgnd vpwr scs8hd_inv_1
XANTENNA_mux_right_ipin_1.INVTX1_0_.scs8hd_inv_1_A chany_bottom_in[3] vgnd vpwr scs8hd_diode_2
XFILLER_23_208 vgnd vpwr scs8hd_decap_4
XANTENNA_mux_left_ipin_0.mux_l2_in_0_.TGATE_1_.scs8hd_ebufn_2_A mux_left_ipin_0.mux_l1_in_1_.TGATE_0_.scs8hd_ebufn_2/Z
+ vgnd vpwr scs8hd_diode_2
Xmem_right_ipin_0.LATCH_0_.latch data_in mem_right_ipin_0.LATCH_0_.latch/Q _50_/Y
+ vgnd vpwr scs8hd_lpflow_inputisolatch_1
XFILLER_24_32 vgnd vpwr scs8hd_decap_12
XANTENNA_mem_left_ipin_0.LATCH_0_.latch_SLEEPB _43_/Y vgnd vpwr scs8hd_diode_2
XFILLER_10_78 vgnd vpwr scs8hd_decap_3
XFILLER_10_12 vpwr vgnd scs8hd_fill_2
X_79_ chany_bottom_in[2] chany_top_out[2] vgnd vpwr scs8hd_buf_2
XFILLER_19_98 vgnd vpwr scs8hd_decap_12
XFILLER_18_141 vgnd vpwr scs8hd_decap_12
XFILLER_24_166 vgnd vpwr scs8hd_decap_12
XPHY_139 vgnd vpwr scs8hd_tapvpwrvgnd_1
XPHY_128 vgnd vpwr scs8hd_tapvpwrvgnd_1
XPHY_117 vgnd vpwr scs8hd_tapvpwrvgnd_1
XPHY_106 vgnd vpwr scs8hd_tapvpwrvgnd_1