* NGSPICE file created from cby_1__1_.ext - technology: sky130A

* Black-box entry subcircuit for sky130_fd_sc_hd__decap_3 abstract view
.subckt sky130_fd_sc_hd__decap_3 VGND VNB VPB VPWR
.ends

* Black-box entry subcircuit for sky130_fd_sc_hd__diode_2 abstract view
.subckt sky130_fd_sc_hd__diode_2 DIODE VGND VNB VPB VPWR
.ends

* Black-box entry subcircuit for sky130_fd_sc_hd__fill_2 abstract view
.subckt sky130_fd_sc_hd__fill_2 VGND VNB VPB VPWR
.ends

* Black-box entry subcircuit for sky130_fd_sc_hd__decap_12 abstract view
.subckt sky130_fd_sc_hd__decap_12 VGND VNB VPB VPWR
.ends

* Black-box entry subcircuit for sky130_fd_sc_hd__dfxbp_1 abstract view
.subckt sky130_fd_sc_hd__dfxbp_1 D Q Q_N CLK VGND VNB VPB VPWR
.ends

* Black-box entry subcircuit for sky130_fd_sc_hd__decap_8 abstract view
.subckt sky130_fd_sc_hd__decap_8 VGND VNB VPB VPWR
.ends

* Black-box entry subcircuit for sky130_fd_sc_hd__mux2_1 abstract view
.subckt sky130_fd_sc_hd__mux2_1 A0 A1 S X VGND VNB VPB VPWR
.ends

* Black-box entry subcircuit for sky130_fd_sc_hd__decap_4 abstract view
.subckt sky130_fd_sc_hd__decap_4 VGND VNB VPB VPWR
.ends

* Black-box entry subcircuit for sky130_fd_sc_hd__buf_2 abstract view
.subckt sky130_fd_sc_hd__buf_2 A X VGND VNB VPB VPWR
.ends

* Black-box entry subcircuit for sky130_fd_sc_hd__fill_1 abstract view
.subckt sky130_fd_sc_hd__fill_1 VGND VNB VPB VPWR
.ends

* Black-box entry subcircuit for sky130_fd_sc_hd__tapvpwrvgnd_1 abstract view
.subckt sky130_fd_sc_hd__tapvpwrvgnd_1 VGND VPWR
.ends

* Black-box entry subcircuit for sky130_fd_sc_hd__buf_1 abstract view
.subckt sky130_fd_sc_hd__buf_1 A X VGND VNB VPB VPWR
.ends

* Black-box entry subcircuit for sky130_fd_sc_hd__decap_6 abstract view
.subckt sky130_fd_sc_hd__decap_6 VGND VNB VPB VPWR
.ends

* Black-box entry subcircuit for sky130_fd_sc_hd__conb_1 abstract view
.subckt sky130_fd_sc_hd__conb_1 HI LO VGND VNB VPB VPWR
.ends

.subckt cby_1__1_ ccff_head ccff_tail chany_bottom_in[0] chany_bottom_in[10] chany_bottom_in[11]
+ chany_bottom_in[12] chany_bottom_in[13] chany_bottom_in[14] chany_bottom_in[15]
+ chany_bottom_in[16] chany_bottom_in[17] chany_bottom_in[18] chany_bottom_in[19]
+ chany_bottom_in[1] chany_bottom_in[2] chany_bottom_in[3] chany_bottom_in[4] chany_bottom_in[5]
+ chany_bottom_in[6] chany_bottom_in[7] chany_bottom_in[8] chany_bottom_in[9] chany_bottom_out[0]
+ chany_bottom_out[10] chany_bottom_out[11] chany_bottom_out[12] chany_bottom_out[13]
+ chany_bottom_out[14] chany_bottom_out[15] chany_bottom_out[16] chany_bottom_out[17]
+ chany_bottom_out[18] chany_bottom_out[19] chany_bottom_out[1] chany_bottom_out[2]
+ chany_bottom_out[3] chany_bottom_out[4] chany_bottom_out[5] chany_bottom_out[6]
+ chany_bottom_out[7] chany_bottom_out[8] chany_bottom_out[9] chany_top_in[0] chany_top_in[10]
+ chany_top_in[11] chany_top_in[12] chany_top_in[13] chany_top_in[14] chany_top_in[15]
+ chany_top_in[16] chany_top_in[17] chany_top_in[18] chany_top_in[19] chany_top_in[1]
+ chany_top_in[2] chany_top_in[3] chany_top_in[4] chany_top_in[5] chany_top_in[6]
+ chany_top_in[7] chany_top_in[8] chany_top_in[9] chany_top_out[0] chany_top_out[10]
+ chany_top_out[11] chany_top_out[12] chany_top_out[13] chany_top_out[14] chany_top_out[15]
+ chany_top_out[16] chany_top_out[17] chany_top_out[18] chany_top_out[19] chany_top_out[1]
+ chany_top_out[2] chany_top_out[3] chany_top_out[4] chany_top_out[5] chany_top_out[6]
+ chany_top_out[7] chany_top_out[8] chany_top_out[9] left_grid_pin_0_ left_grid_pin_10_
+ left_grid_pin_11_ left_grid_pin_12_ left_grid_pin_13_ left_grid_pin_14_ left_grid_pin_15_
+ left_grid_pin_1_ left_grid_pin_2_ left_grid_pin_3_ left_grid_pin_4_ left_grid_pin_5_
+ left_grid_pin_6_ left_grid_pin_7_ left_grid_pin_8_ left_grid_pin_9_ prog_clk right_grid_pin_52_
+ VPWR VGND
XFILLER_36_19 VGND VGND VPWR VPWR sky130_fd_sc_hd__decap_3
XANTENNA_mux_right_ipin_1.mux_l3_in_0__A1 mux_right_ipin_1.mux_l2_in_0_/X VGND VGND
+ VPWR VPWR sky130_fd_sc_hd__diode_2
XFILLER_7_7 VGND VGND VPWR VPWR sky130_fd_sc_hd__fill_2
XFILLER_26_41 VGND VGND VPWR VPWR sky130_fd_sc_hd__fill_2
XFILLER_42_40 VGND VGND VPWR VPWR sky130_fd_sc_hd__decap_12
XFILLER_3_56 VGND VGND VPWR VPWR sky130_fd_sc_hd__decap_3
XFILLER_3_12 VGND VGND VPWR VPWR sky130_fd_sc_hd__fill_2
XFILLER_3_89 VGND VGND VPWR VPWR sky130_fd_sc_hd__fill_2
XANTENNA_mux_left_ipin_0.mux_l2_in_1__A1 mux_left_ipin_0.mux_l1_in_2_/X VGND VGND
+ VPWR VPWR sky130_fd_sc_hd__diode_2
Xmem_right_ipin_14.sky130_fd_sc_hd__dfxbp_1_0_ mux_right_ipin_13.mux_l4_in_0_/S mux_right_ipin_14.mux_l1_in_0_/S
+ mem_right_ipin_14.sky130_fd_sc_hd__dfxbp_1_0_/Q_N prog_clk VGND VGND VPWR VPWR sky130_fd_sc_hd__dfxbp_1
XFILLER_63_39 VGND VGND VPWR VPWR sky130_fd_sc_hd__decap_8
XANTENNA_mux_right_ipin_3.mux_l2_in_0__S mux_right_ipin_3.mux_l2_in_3_/S VGND VGND
+ VPWR VPWR sky130_fd_sc_hd__diode_2
XFILLER_10_125 VGND VGND VPWR VPWR sky130_fd_sc_hd__fill_2
XFILLER_12_21 VGND VGND VPWR VPWR sky130_fd_sc_hd__decap_3
XANTENNA_mux_right_ipin_8.mux_l4_in_0__A0 mux_right_ipin_8.mux_l3_in_1_/X VGND VGND
+ VPWR VPWR sky130_fd_sc_hd__diode_2
Xmux_right_ipin_11.mux_l2_in_0_ chany_bottom_in[2] mux_right_ipin_11.mux_l1_in_0_/X
+ mux_right_ipin_11.mux_l2_in_1_/S mux_right_ipin_11.mux_l2_in_0_/X VGND VGND VPWR
+ VPWR sky130_fd_sc_hd__mux2_1
XFILLER_37_40 VGND VGND VPWR VPWR sky130_fd_sc_hd__fill_2
XFILLER_53_72 VGND VGND VPWR VPWR sky130_fd_sc_hd__fill_2
XFILLER_53_50 VGND VGND VPWR VPWR sky130_fd_sc_hd__decap_4
XANTENNA_mux_left_ipin_0.mux_l2_in_0__S mux_left_ipin_0.mux_l2_in_3_/S VGND VGND VPWR
+ VPWR sky130_fd_sc_hd__diode_2
XANTENNA_mux_right_ipin_9.mux_l1_in_1__S mux_right_ipin_9.mux_l1_in_0_/S VGND VGND
+ VPWR VPWR sky130_fd_sc_hd__diode_2
X_66_ chany_bottom_in[7] chany_top_out[7] VGND VGND VPWR VPWR sky130_fd_sc_hd__buf_2
XFILLER_58_28 VGND VGND VPWR VPWR sky130_fd_sc_hd__decap_3
XFILLER_59_114 VGND VGND VPWR VPWR sky130_fd_sc_hd__fill_2
XFILLER_23_97 VGND VGND VPWR VPWR sky130_fd_sc_hd__fill_2
XFILLER_48_50 VGND VGND VPWR VPWR sky130_fd_sc_hd__decap_8
XFILLER_2_132 VGND VGND VPWR VPWR sky130_fd_sc_hd__decap_12
XANTENNA_mux_left_ipin_0.mux_l3_in_0__A1 mux_left_ipin_0.mux_l2_in_0_/X VGND VGND
+ VPWR VPWR sky130_fd_sc_hd__diode_2
XFILLER_0_57 VGND VGND VPWR VPWR sky130_fd_sc_hd__decap_3
XFILLER_9_77 VGND VGND VPWR VPWR sky130_fd_sc_hd__fill_2
X_49_ chany_top_in[4] chany_bottom_out[4] VGND VGND VPWR VPWR sky130_fd_sc_hd__buf_2
XANTENNA_mux_right_ipin_2.mux_l3_in_0__S mux_right_ipin_2.mux_l3_in_0_/S VGND VGND
+ VPWR VPWR sky130_fd_sc_hd__diode_2
XFILLER_34_30 VGND VGND VPWR VPWR sky130_fd_sc_hd__fill_1
XFILLER_34_41 VGND VGND VPWR VPWR sky130_fd_sc_hd__fill_2
XFILLER_34_74 VGND VGND VPWR VPWR sky130_fd_sc_hd__decap_3
XFILLER_34_85 VGND VGND VPWR VPWR sky130_fd_sc_hd__fill_1
XFILLER_50_84 VGND VGND VPWR VPWR sky130_fd_sc_hd__decap_8
XFILLER_50_40 VGND VGND VPWR VPWR sky130_fd_sc_hd__decap_4
XANTENNA_mux_right_ipin_8.mux_l2_in_1__S mux_right_ipin_8.mux_l2_in_2_/S VGND VGND
+ VPWR VPWR sky130_fd_sc_hd__diode_2
XANTENNA_mem_right_ipin_0.sky130_fd_sc_hd__dfxbp_1_0__CLK prog_clk VGND VGND VPWR
+ VPWR sky130_fd_sc_hd__diode_2
XANTENNA_mux_right_ipin_8.mux_l2_in_2__A1 chany_top_in[13] VGND VGND VPWR VPWR sky130_fd_sc_hd__diode_2
XFILLER_44_109 VGND VGND VPWR VPWR sky130_fd_sc_hd__decap_8
XFILLER_29_106 VGND VGND VPWR VPWR sky130_fd_sc_hd__decap_12
XANTENNA_mem_right_ipin_13.sky130_fd_sc_hd__dfxbp_1_0__CLK prog_clk VGND VGND VPWR
+ VPWR sky130_fd_sc_hd__diode_2
XFILLER_20_32 VGND VGND VPWR VPWR sky130_fd_sc_hd__decap_12
XANTENNA_mux_right_ipin_11.mux_l1_in_0__S mux_right_ipin_11.mux_l1_in_0_/S VGND VGND
+ VPWR VPWR sky130_fd_sc_hd__diode_2
XFILLER_45_51 VGND VGND VPWR VPWR sky130_fd_sc_hd__decap_4
XFILLER_61_50 VGND VGND VPWR VPWR sky130_fd_sc_hd__fill_2
XFILLER_6_23 VGND VGND VPWR VPWR sky130_fd_sc_hd__fill_2
XFILLER_6_45 VGND VGND VPWR VPWR sky130_fd_sc_hd__fill_2
XFILLER_13_3 VGND VGND VPWR VPWR sky130_fd_sc_hd__fill_2
XANTENNA_mux_right_ipin_3.mux_l2_in_3__S mux_right_ipin_3.mux_l2_in_3_/S VGND VGND
+ VPWR VPWR sky130_fd_sc_hd__diode_2
XANTENNA_mux_right_ipin_11.mux_l2_in_0__A1 mux_right_ipin_11.mux_l1_in_0_/X VGND VGND
+ VPWR VPWR sky130_fd_sc_hd__diode_2
XANTENNA_mux_right_ipin_1.mux_l4_in_0__S mux_right_ipin_1.mux_l4_in_0_/S VGND VGND
+ VPWR VPWR sky130_fd_sc_hd__diode_2
XFILLER_25_120 VGND VGND VPWR VPWR sky130_fd_sc_hd__fill_2
XFILLER_40_145 VGND VGND VPWR VPWR sky130_fd_sc_hd__fill_1
XFILLER_31_42 VGND VGND VPWR VPWR sky130_fd_sc_hd__fill_2
XFILLER_31_75 VGND VGND VPWR VPWR sky130_fd_sc_hd__fill_2
XANTENNA_mem_right_ipin_3.sky130_fd_sc_hd__dfxbp_1_1__CLK prog_clk VGND VGND VPWR
+ VPWR sky130_fd_sc_hd__diode_2
XANTENNA_mux_left_ipin_0.mux_l2_in_3__S mux_left_ipin_0.mux_l2_in_3_/S VGND VGND VPWR
+ VPWR sky130_fd_sc_hd__diode_2
XANTENNA_mux_right_ipin_5.mux_l1_in_1__A0 chany_top_in[2] VGND VGND VPWR VPWR sky130_fd_sc_hd__diode_2
XANTENNA_mux_right_ipin_8.mux_l3_in_1__A1 mux_right_ipin_8.mux_l2_in_2_/X VGND VGND
+ VPWR VPWR sky130_fd_sc_hd__diode_2
XPHY_170 VGND VPWR sky130_fd_sc_hd__tapvpwrvgnd_1
XFILLER_31_123 VGND VGND VPWR VPWR sky130_fd_sc_hd__decap_12
XPHY_181 VGND VPWR sky130_fd_sc_hd__tapvpwrvgnd_1
XPHY_192 VGND VPWR sky130_fd_sc_hd__tapvpwrvgnd_1
XANTENNA_mux_right_ipin_7.mux_l3_in_1__S mux_right_ipin_7.mux_l3_in_0_/S VGND VGND
+ VPWR VPWR sky130_fd_sc_hd__diode_2
XFILLER_52_19 VGND VGND VPWR VPWR sky130_fd_sc_hd__fill_1
XFILLER_13_101 VGND VGND VPWR VPWR sky130_fd_sc_hd__fill_1
XFILLER_26_75 VGND VGND VPWR VPWR sky130_fd_sc_hd__fill_2
XFILLER_26_97 VGND VGND VPWR VPWR sky130_fd_sc_hd__fill_2
XFILLER_42_52 VGND VGND VPWR VPWR sky130_fd_sc_hd__decap_8
XFILLER_42_30 VGND VGND VPWR VPWR sky130_fd_sc_hd__fill_1
XANTENNA_mem_right_ipin_0.sky130_fd_sc_hd__dfxbp_1_1__D mux_right_ipin_0.mux_l1_in_1_/S
+ VGND VGND VPWR VPWR sky130_fd_sc_hd__diode_2
XANTENNA_mux_right_ipin_10.mux_l2_in_0__S mux_right_ipin_10.mux_l2_in_3_/S VGND VGND
+ VPWR VPWR sky130_fd_sc_hd__diode_2
XANTENNA_mux_right_ipin_0.sky130_fd_sc_hd__buf_4_0__A mux_right_ipin_0.mux_l4_in_0_/X
+ VGND VGND VPWR VPWR sky130_fd_sc_hd__diode_2
XFILLER_3_35 VGND VGND VPWR VPWR sky130_fd_sc_hd__decap_4
XANTENNA_mem_right_ipin_6.sky130_fd_sc_hd__dfxbp_1_2__CLK prog_clk VGND VGND VPWR
+ VPWR sky130_fd_sc_hd__diode_2
XANTENNA_mux_right_ipin_5.mux_l2_in_0__A0 mux_right_ipin_5.mux_l1_in_1_/X VGND VGND
+ VPWR VPWR sky130_fd_sc_hd__diode_2
XFILLER_6_108 VGND VGND VPWR VPWR sky130_fd_sc_hd__fill_2
XFILLER_12_88 VGND VGND VPWR VPWR sky130_fd_sc_hd__decap_4
XANTENNA_mux_right_ipin_8.mux_l4_in_0__A1 mux_right_ipin_8.mux_l3_in_0_/X VGND VGND
+ VPWR VPWR sky130_fd_sc_hd__diode_2
XFILLER_53_62 VGND VGND VPWR VPWR sky130_fd_sc_hd__fill_1
Xmux_right_ipin_8.sky130_fd_sc_hd__buf_4_0_ mux_right_ipin_8.mux_l4_in_0_/X left_grid_pin_8_
+ VGND VGND VPWR VPWR sky130_fd_sc_hd__buf_1
X_65_ chany_bottom_in[8] chany_top_out[8] VGND VGND VPWR VPWR sky130_fd_sc_hd__buf_2
XFILLER_23_10 VGND VGND VPWR VPWR sky130_fd_sc_hd__decap_12
XANTENNA_mux_right_ipin_3.mux_l2_in_2__A0 chany_bottom_in[16] VGND VGND VPWR VPWR
+ sky130_fd_sc_hd__diode_2
XFILLER_48_40 VGND VGND VPWR VPWR sky130_fd_sc_hd__fill_1
XFILLER_2_144 VGND VGND VPWR VPWR sky130_fd_sc_hd__fill_2
XANTENNA_mem_right_ipin_9.sky130_fd_sc_hd__dfxbp_1_3__CLK prog_clk VGND VGND VPWR
+ VPWR sky130_fd_sc_hd__diode_2
XFILLER_64_94 VGND VGND VPWR VPWR sky130_fd_sc_hd__decap_12
XANTENNA_mem_right_ipin_12.sky130_fd_sc_hd__dfxbp_1_0__D mux_right_ipin_11.mux_l4_in_0_/S
+ VGND VGND VPWR VPWR sky130_fd_sc_hd__diode_2
XFILLER_0_36 VGND VGND VPWR VPWR sky130_fd_sc_hd__fill_2
XFILLER_43_3 VGND VGND VPWR VPWR sky130_fd_sc_hd__decap_12
XFILLER_56_118 VGND VGND VPWR VPWR sky130_fd_sc_hd__decap_3
X_48_ chany_top_in[5] chany_bottom_out[5] VGND VGND VPWR VPWR sky130_fd_sc_hd__buf_2
XFILLER_60_19 VGND VGND VPWR VPWR sky130_fd_sc_hd__decap_12
XANTENNA_mux_right_ipin_15.mux_l2_in_1__S mux_right_ipin_15.mux_l2_in_0_/S VGND VGND
+ VPWR VPWR sky130_fd_sc_hd__diode_2
Xmux_right_ipin_11.mux_l1_in_0_ chany_top_in[0] chany_bottom_in[0] mux_right_ipin_11.mux_l1_in_0_/S
+ mux_right_ipin_11.mux_l1_in_0_/X VGND VGND VPWR VPWR sky130_fd_sc_hd__mux2_1
XFILLER_55_140 VGND VGND VPWR VPWR sky130_fd_sc_hd__decap_6
XANTENNA_mem_right_ipin_5.sky130_fd_sc_hd__dfxbp_1_0__D mux_right_ipin_4.mux_l4_in_0_/S
+ VGND VGND VPWR VPWR sky130_fd_sc_hd__diode_2
XFILLER_50_30 VGND VGND VPWR VPWR sky130_fd_sc_hd__fill_1
XFILLER_34_64 VGND VGND VPWR VPWR sky130_fd_sc_hd__fill_1
XFILLER_38_129 VGND VGND VPWR VPWR sky130_fd_sc_hd__fill_2
XFILLER_61_143 VGND VGND VPWR VPWR sky130_fd_sc_hd__decap_3
XFILLER_61_121 VGND VGND VPWR VPWR sky130_fd_sc_hd__fill_1
XFILLER_29_118 VGND VGND VPWR VPWR sky130_fd_sc_hd__decap_4
XFILLER_55_19 VGND VGND VPWR VPWR sky130_fd_sc_hd__fill_2
XANTENNA_mux_right_ipin_3.mux_l3_in_1__A0 mux_right_ipin_3.mux_l2_in_3_/X VGND VGND
+ VPWR VPWR sky130_fd_sc_hd__diode_2
XFILLER_37_140 VGND VGND VPWR VPWR sky130_fd_sc_hd__decap_6
XFILLER_20_44 VGND VGND VPWR VPWR sky130_fd_sc_hd__decap_8
XFILLER_20_66 VGND VGND VPWR VPWR sky130_fd_sc_hd__fill_2
XFILLER_20_88 VGND VGND VPWR VPWR sky130_fd_sc_hd__decap_4
XFILLER_29_53 VGND VGND VPWR VPWR sky130_fd_sc_hd__fill_2
XANTENNA_mux_right_ipin_10.mux_l2_in_3__S mux_right_ipin_10.mux_l2_in_3_/S VGND VGND
+ VPWR VPWR sky130_fd_sc_hd__diode_2
XFILLER_61_62 VGND VGND VPWR VPWR sky130_fd_sc_hd__decap_4
XFILLER_6_13 VGND VGND VPWR VPWR sky130_fd_sc_hd__fill_1
XANTENNA_mux_right_ipin_3.sky130_fd_sc_hd__buf_4_0__A mux_right_ipin_3.mux_l4_in_0_/X
+ VGND VGND VPWR VPWR sky130_fd_sc_hd__diode_2
XFILLER_34_121 VGND VGND VPWR VPWR sky130_fd_sc_hd__fill_2
XANTENNA_mux_right_ipin_14.mux_l3_in_1__S mux_right_ipin_14.mux_l3_in_1_/S VGND VGND
+ VPWR VPWR sky130_fd_sc_hd__diode_2
XFILLER_40_102 VGND VGND VPWR VPWR sky130_fd_sc_hd__fill_2
XFILLER_15_33 VGND VGND VPWR VPWR sky130_fd_sc_hd__fill_2
XFILLER_25_143 VGND VGND VPWR VPWR sky130_fd_sc_hd__decap_3
XANTENNA_mux_right_ipin_5.mux_l1_in_1__A1 chany_bottom_in[2] VGND VGND VPWR VPWR sky130_fd_sc_hd__diode_2
XANTENNA_mux_right_ipin_3.mux_l4_in_0__A0 mux_right_ipin_3.mux_l3_in_1_/X VGND VGND
+ VPWR VPWR sky130_fd_sc_hd__diode_2
XPHY_160 VGND VPWR sky130_fd_sc_hd__tapvpwrvgnd_1
XPHY_171 VGND VPWR sky130_fd_sc_hd__tapvpwrvgnd_1
XPHY_182 VGND VPWR sky130_fd_sc_hd__tapvpwrvgnd_1
XPHY_193 VGND VPWR sky130_fd_sc_hd__tapvpwrvgnd_1
XFILLER_31_135 VGND VGND VPWR VPWR sky130_fd_sc_hd__decap_8
XFILLER_22_135 VGND VGND VPWR VPWR sky130_fd_sc_hd__decap_8
XANTENNA_mux_right_ipin_15.mux_l1_in_0__A0 chany_top_in[0] VGND VGND VPWR VPWR sky130_fd_sc_hd__diode_2
XANTENNA_mux_right_ipin_0.mux_l1_in_0__S mux_right_ipin_0.mux_l1_in_1_/S VGND VGND
+ VPWR VPWR sky130_fd_sc_hd__diode_2
XFILLER_9_117 VGND VGND VPWR VPWR sky130_fd_sc_hd__decap_4
XFILLER_42_64 VGND VGND VPWR VPWR sky130_fd_sc_hd__decap_8
XANTENNA_mem_right_ipin_12.sky130_fd_sc_hd__dfxbp_1_3__D mux_right_ipin_12.mux_l3_in_0_/S
+ VGND VGND VPWR VPWR sky130_fd_sc_hd__diode_2
XANTENNA_mux_right_ipin_5.mux_l2_in_0__A1 mux_right_ipin_5.mux_l1_in_0_/X VGND VGND
+ VPWR VPWR sky130_fd_sc_hd__diode_2
XANTENNA_mem_right_ipin_5.sky130_fd_sc_hd__dfxbp_1_3__D mux_right_ipin_5.mux_l3_in_0_/S
+ VGND VGND VPWR VPWR sky130_fd_sc_hd__diode_2
XANTENNA_mux_right_ipin_13.mux_l1_in_2__A0 chany_top_in[8] VGND VGND VPWR VPWR sky130_fd_sc_hd__diode_2
XFILLER_37_53 VGND VGND VPWR VPWR sky130_fd_sc_hd__fill_2
X_64_ chany_bottom_in[9] chany_top_out[9] VGND VGND VPWR VPWR sky130_fd_sc_hd__buf_2
XFILLER_38_6 VGND VGND VPWR VPWR sky130_fd_sc_hd__fill_2
Xmux_right_ipin_3.mux_l2_in_3_ _31_/HI chany_top_in[16] mux_right_ipin_3.mux_l2_in_3_/S
+ mux_right_ipin_3.mux_l2_in_3_/X VGND VGND VPWR VPWR sky130_fd_sc_hd__mux2_1
XANTENNA_mem_left_ipin_0.sky130_fd_sc_hd__dfxbp_1_0__D ccff_head VGND VGND VPWR VPWR
+ sky130_fd_sc_hd__diode_2
XFILLER_23_22 VGND VGND VPWR VPWR sky130_fd_sc_hd__decap_4
XFILLER_23_66 VGND VGND VPWR VPWR sky130_fd_sc_hd__fill_2
XFILLER_3_3 VGND VGND VPWR VPWR sky130_fd_sc_hd__fill_1
XFILLER_2_101 VGND VGND VPWR VPWR sky130_fd_sc_hd__fill_2
XANTENNA_mux_right_ipin_3.mux_l2_in_2__A1 chany_top_in[8] VGND VGND VPWR VPWR sky130_fd_sc_hd__diode_2
XFILLER_0_15 VGND VGND VPWR VPWR sky130_fd_sc_hd__decap_4
XFILLER_9_35 VGND VGND VPWR VPWR sky130_fd_sc_hd__fill_2
XFILLER_9_57 VGND VGND VPWR VPWR sky130_fd_sc_hd__fill_2
XFILLER_36_3 VGND VGND VPWR VPWR sky130_fd_sc_hd__fill_2
X_47_ chany_top_in[6] chany_bottom_out[6] VGND VGND VPWR VPWR sky130_fd_sc_hd__buf_2
XANTENNA_mux_right_ipin_5.mux_l1_in_1__S mux_right_ipin_5.mux_l1_in_0_/S VGND VGND
+ VPWR VPWR sky130_fd_sc_hd__diode_2
XANTENNA_mux_right_ipin_6.sky130_fd_sc_hd__buf_4_0__A mux_right_ipin_6.mux_l4_in_0_/X
+ VGND VGND VPWR VPWR sky130_fd_sc_hd__diode_2
XANTENNA_mux_right_ipin_13.mux_l2_in_1__A0 chany_bottom_in[14] VGND VGND VPWR VPWR
+ sky130_fd_sc_hd__diode_2
XFILLER_18_55 VGND VGND VPWR VPWR sky130_fd_sc_hd__fill_2
XFILLER_18_77 VGND VGND VPWR VPWR sky130_fd_sc_hd__decap_4
XFILLER_18_88 VGND VGND VPWR VPWR sky130_fd_sc_hd__decap_4
XFILLER_18_99 VGND VGND VPWR VPWR sky130_fd_sc_hd__fill_1
XFILLER_34_21 VGND VGND VPWR VPWR sky130_fd_sc_hd__fill_1
XFILLER_34_32 VGND VGND VPWR VPWR sky130_fd_sc_hd__decap_6
XFILLER_50_64 VGND VGND VPWR VPWR sky130_fd_sc_hd__decap_4
XFILLER_59_62 VGND VGND VPWR VPWR sky130_fd_sc_hd__decap_4
XFILLER_50_97 VGND VGND VPWR VPWR sky130_fd_sc_hd__decap_3
XFILLER_46_130 VGND VGND VPWR VPWR sky130_fd_sc_hd__decap_12
XFILLER_15_8 VGND VGND VPWR VPWR sky130_fd_sc_hd__fill_2
XANTENNA_mux_right_ipin_0.mux_l1_in_1__A0 chany_top_in[3] VGND VGND VPWR VPWR sky130_fd_sc_hd__diode_2
XANTENNA_mux_right_ipin_3.mux_l3_in_1__A1 mux_right_ipin_3.mux_l2_in_2_/X VGND VGND
+ VPWR VPWR sky130_fd_sc_hd__diode_2
XFILLER_52_133 VGND VGND VPWR VPWR sky130_fd_sc_hd__decap_12
XFILLER_29_10 VGND VGND VPWR VPWR sky130_fd_sc_hd__decap_12
XANTENNA_mux_right_ipin_11.mux_l2_in_3__A0 _25_/HI VGND VGND VPWR VPWR sky130_fd_sc_hd__diode_2
XFILLER_43_100 VGND VGND VPWR VPWR sky130_fd_sc_hd__fill_2
Xmux_right_ipin_3.mux_l4_in_0_ mux_right_ipin_3.mux_l3_in_1_/X mux_right_ipin_3.mux_l3_in_0_/X
+ mux_right_ipin_3.mux_l4_in_0_/S mux_right_ipin_3.mux_l4_in_0_/X VGND VGND VPWR VPWR
+ sky130_fd_sc_hd__mux2_1
XFILLER_29_32 VGND VGND VPWR VPWR sky130_fd_sc_hd__fill_2
XFILLER_61_41 VGND VGND VPWR VPWR sky130_fd_sc_hd__fill_1
XFILLER_43_111 VGND VGND VPWR VPWR sky130_fd_sc_hd__decap_6
XFILLER_20_6 VGND VGND VPWR VPWR sky130_fd_sc_hd__decap_8
XANTENNA_mux_right_ipin_13.mux_l3_in_0__A0 mux_right_ipin_13.mux_l2_in_1_/X VGND VGND
+ VPWR VPWR sky130_fd_sc_hd__diode_2
XANTENNA_mux_right_ipin_4.mux_l2_in_1__S mux_right_ipin_4.mux_l2_in_2_/S VGND VGND
+ VPWR VPWR sky130_fd_sc_hd__diode_2
XFILLER_15_12 VGND VGND VPWR VPWR sky130_fd_sc_hd__fill_2
XFILLER_31_55 VGND VGND VPWR VPWR sky130_fd_sc_hd__fill_2
XFILLER_56_96 VGND VGND VPWR VPWR sky130_fd_sc_hd__fill_2
XFILLER_56_41 VGND VGND VPWR VPWR sky130_fd_sc_hd__decap_8
XANTENNA_mux_right_ipin_0.mux_l2_in_0__A0 mux_right_ipin_0.mux_l1_in_1_/X VGND VGND
+ VPWR VPWR sky130_fd_sc_hd__diode_2
XPHY_150 VGND VPWR sky130_fd_sc_hd__tapvpwrvgnd_1
XPHY_161 VGND VPWR sky130_fd_sc_hd__tapvpwrvgnd_1
XANTENNA_mux_right_ipin_3.mux_l4_in_0__A1 mux_right_ipin_3.mux_l3_in_0_/X VGND VGND
+ VPWR VPWR sky130_fd_sc_hd__diode_2
XPHY_172 VGND VPWR sky130_fd_sc_hd__tapvpwrvgnd_1
XPHY_183 VGND VPWR sky130_fd_sc_hd__tapvpwrvgnd_1
XPHY_194 VGND VPWR sky130_fd_sc_hd__tapvpwrvgnd_1
Xmux_right_ipin_8.mux_l2_in_3_ _19_/HI chany_top_in[19] mux_right_ipin_8.mux_l2_in_2_/S
+ mux_right_ipin_8.mux_l2_in_3_/X VGND VGND VPWR VPWR sky130_fd_sc_hd__mux2_1
XFILLER_22_114 VGND VGND VPWR VPWR sky130_fd_sc_hd__fill_2
Xmux_right_ipin_3.mux_l3_in_1_ mux_right_ipin_3.mux_l2_in_3_/X mux_right_ipin_3.mux_l2_in_2_/X
+ mux_right_ipin_3.mux_l3_in_1_/S mux_right_ipin_3.mux_l3_in_1_/X VGND VGND VPWR VPWR
+ sky130_fd_sc_hd__mux2_1
XANTENNA_mux_right_ipin_15.mux_l1_in_0__A1 chany_bottom_in[0] VGND VGND VPWR VPWR
+ sky130_fd_sc_hd__diode_2
XANTENNA_mem_left_ipin_0.sky130_fd_sc_hd__dfxbp_1_3__D mux_left_ipin_0.mux_l3_in_1_/S
+ VGND VGND VPWR VPWR sky130_fd_sc_hd__diode_2
XFILLER_26_11 VGND VGND VPWR VPWR sky130_fd_sc_hd__decap_3
XFILLER_26_55 VGND VGND VPWR VPWR sky130_fd_sc_hd__fill_1
XFILLER_42_76 VGND VGND VPWR VPWR sky130_fd_sc_hd__decap_12
XFILLER_42_32 VGND VGND VPWR VPWR sky130_fd_sc_hd__decap_4
XFILLER_13_114 VGND VGND VPWR VPWR sky130_fd_sc_hd__fill_2
XFILLER_13_136 VGND VGND VPWR VPWR sky130_fd_sc_hd__fill_2
XANTENNA_mem_right_ipin_10.sky130_fd_sc_hd__dfxbp_1_2__CLK prog_clk VGND VGND VPWR
+ VPWR sky130_fd_sc_hd__diode_2
XANTENNA_mux_right_ipin_3.mux_l3_in_1__S mux_right_ipin_3.mux_l3_in_1_/S VGND VGND
+ VPWR VPWR sky130_fd_sc_hd__diode_2
XANTENNA_mux_right_ipin_9.sky130_fd_sc_hd__buf_4_0__A mux_right_ipin_9.mux_l4_in_0_/X
+ VGND VGND VPWR VPWR sky130_fd_sc_hd__diode_2
XFILLER_12_13 VGND VGND VPWR VPWR sky130_fd_sc_hd__fill_1
XANTENNA_mux_right_ipin_13.mux_l1_in_2__A1 chany_bottom_in[8] VGND VGND VPWR VPWR
+ sky130_fd_sc_hd__diode_2
XFILLER_37_87 VGND VGND VPWR VPWR sky130_fd_sc_hd__fill_2
XANTENNA_mux_left_ipin_0.mux_l3_in_1__S mux_left_ipin_0.mux_l3_in_1_/S VGND VGND VPWR
+ VPWR sky130_fd_sc_hd__diode_2
XFILLER_45_8 VGND VGND VPWR VPWR sky130_fd_sc_hd__fill_2
X_63_ chany_bottom_in[10] chany_top_out[10] VGND VGND VPWR VPWR sky130_fd_sc_hd__buf_2
Xmux_right_ipin_3.mux_l2_in_2_ chany_bottom_in[16] chany_top_in[8] mux_right_ipin_3.mux_l2_in_3_/S
+ mux_right_ipin_3.mux_l2_in_2_/X VGND VGND VPWR VPWR sky130_fd_sc_hd__mux2_1
XANTENNA_mux_right_ipin_9.mux_l2_in_2__S mux_right_ipin_9.mux_l2_in_1_/S VGND VGND
+ VPWR VPWR sky130_fd_sc_hd__diode_2
XANTENNA_mem_right_ipin_0.sky130_fd_sc_hd__dfxbp_1_3__CLK prog_clk VGND VGND VPWR
+ VPWR sky130_fd_sc_hd__diode_2
XANTENNA_mem_right_ipin_13.sky130_fd_sc_hd__dfxbp_1_3__CLK prog_clk VGND VGND VPWR
+ VPWR sky130_fd_sc_hd__diode_2
Xmux_right_ipin_8.mux_l4_in_0_ mux_right_ipin_8.mux_l3_in_1_/X mux_right_ipin_8.mux_l3_in_0_/X
+ mux_right_ipin_8.mux_l4_in_0_/S mux_right_ipin_8.mux_l4_in_0_/X VGND VGND VPWR VPWR
+ sky130_fd_sc_hd__mux2_1
XANTENNA_mux_right_ipin_9.mux_l1_in_0__A0 chany_top_in[0] VGND VGND VPWR VPWR sky130_fd_sc_hd__diode_2
XFILLER_23_45 VGND VGND VPWR VPWR sky130_fd_sc_hd__fill_2
XANTENNA_mux_right_ipin_12.mux_l1_in_1__S mux_right_ipin_12.mux_l1_in_1_/S VGND VGND
+ VPWR VPWR sky130_fd_sc_hd__diode_2
XFILLER_48_97 VGND VGND VPWR VPWR sky130_fd_sc_hd__fill_2
XFILLER_48_86 VGND VGND VPWR VPWR sky130_fd_sc_hd__decap_6
XFILLER_0_27 VGND VGND VPWR VPWR sky130_fd_sc_hd__fill_2
XFILLER_0_49 VGND VGND VPWR VPWR sky130_fd_sc_hd__fill_2
XFILLER_64_63 VGND VGND VPWR VPWR sky130_fd_sc_hd__decap_12
XFILLER_50_6 VGND VGND VPWR VPWR sky130_fd_sc_hd__decap_12
X_46_ chany_top_in[7] chany_bottom_out[7] VGND VGND VPWR VPWR sky130_fd_sc_hd__buf_2
XANTENNA_mux_right_ipin_13.mux_l2_in_1__A1 mux_right_ipin_13.mux_l1_in_2_/X VGND VGND
+ VPWR VPWR sky130_fd_sc_hd__diode_2
XFILLER_34_88 VGND VGND VPWR VPWR sky130_fd_sc_hd__fill_2
XFILLER_50_54 VGND VGND VPWR VPWR sky130_fd_sc_hd__decap_4
XFILLER_50_32 VGND VGND VPWR VPWR sky130_fd_sc_hd__fill_2
XFILLER_34_99 VGND VGND VPWR VPWR sky130_fd_sc_hd__decap_4
XFILLER_61_123 VGND VGND VPWR VPWR sky130_fd_sc_hd__decap_12
XFILLER_61_101 VGND VGND VPWR VPWR sky130_fd_sc_hd__decap_12
XFILLER_46_142 VGND VGND VPWR VPWR sky130_fd_sc_hd__decap_4
Xmux_right_ipin_8.mux_l3_in_1_ mux_right_ipin_8.mux_l2_in_3_/X mux_right_ipin_8.mux_l2_in_2_/X
+ mux_right_ipin_8.mux_l3_in_1_/S mux_right_ipin_8.mux_l3_in_1_/X VGND VGND VPWR VPWR
+ sky130_fd_sc_hd__mux2_1
Xmux_right_ipin_1.sky130_fd_sc_hd__buf_4_0_ mux_right_ipin_1.mux_l4_in_0_/X left_grid_pin_1_
+ VGND VGND VPWR VPWR sky130_fd_sc_hd__buf_1
XANTENNA_mux_right_ipin_0.mux_l1_in_1__A1 chany_bottom_in[3] VGND VGND VPWR VPWR sky130_fd_sc_hd__diode_2
XFILLER_52_145 VGND VGND VPWR VPWR sky130_fd_sc_hd__fill_1
X_29_ _29_/HI _29_/LO VGND VGND VPWR VPWR sky130_fd_sc_hd__conb_1
XANTENNA_mux_right_ipin_11.mux_l2_in_3__A1 chany_top_in[16] VGND VGND VPWR VPWR sky130_fd_sc_hd__diode_2
XFILLER_29_22 VGND VGND VPWR VPWR sky130_fd_sc_hd__decap_8
XFILLER_45_43 VGND VGND VPWR VPWR sky130_fd_sc_hd__fill_2
XFILLER_43_123 VGND VGND VPWR VPWR sky130_fd_sc_hd__fill_2
XFILLER_61_75 VGND VGND VPWR VPWR sky130_fd_sc_hd__decap_12
XANTENNA_mux_right_ipin_11.mux_l2_in_1__S mux_right_ipin_11.mux_l2_in_1_/S VGND VGND
+ VPWR VPWR sky130_fd_sc_hd__diode_2
XFILLER_43_145 VGND VGND VPWR VPWR sky130_fd_sc_hd__fill_1
XFILLER_61_97 VGND VGND VPWR VPWR sky130_fd_sc_hd__fill_2
XANTENNA_mux_right_ipin_13.mux_l3_in_0__A1 mux_right_ipin_13.mux_l2_in_0_/X VGND VGND
+ VPWR VPWR sky130_fd_sc_hd__diode_2
XFILLER_19_120 VGND VGND VPWR VPWR sky130_fd_sc_hd__fill_2
XANTENNA_mux_right_ipin_10.mux_l1_in_0__A0 chany_top_in[1] VGND VGND VPWR VPWR sky130_fd_sc_hd__diode_2
XANTENNA_mem_right_ipin_4.sky130_fd_sc_hd__dfxbp_1_0__CLK prog_clk VGND VGND VPWR
+ VPWR sky130_fd_sc_hd__diode_2
XFILLER_34_145 VGND VGND VPWR VPWR sky130_fd_sc_hd__fill_1
XANTENNA_mux_right_ipin_7.mux_l2_in_1__A0 chany_bottom_in[4] VGND VGND VPWR VPWR sky130_fd_sc_hd__diode_2
XFILLER_25_112 VGND VGND VPWR VPWR sky130_fd_sc_hd__decap_8
XFILLER_25_123 VGND VGND VPWR VPWR sky130_fd_sc_hd__decap_12
XFILLER_15_46 VGND VGND VPWR VPWR sky130_fd_sc_hd__decap_4
XFILLER_15_57 VGND VGND VPWR VPWR sky130_fd_sc_hd__fill_2
XFILLER_56_64 VGND VGND VPWR VPWR sky130_fd_sc_hd__decap_3
XANTENNA_mux_right_ipin_0.mux_l2_in_0__A1 mux_right_ipin_0.mux_l1_in_0_/X VGND VGND
+ VPWR VPWR sky130_fd_sc_hd__diode_2
XFILLER_16_145 VGND VGND VPWR VPWR sky130_fd_sc_hd__fill_1
XFILLER_31_115 VGND VGND VPWR VPWR sky130_fd_sc_hd__fill_2
Xmux_right_ipin_8.mux_l2_in_2_ chany_bottom_in[19] chany_top_in[13] mux_right_ipin_8.mux_l2_in_2_/S
+ mux_right_ipin_8.mux_l2_in_2_/X VGND VGND VPWR VPWR sky130_fd_sc_hd__mux2_1
XPHY_140 VGND VPWR sky130_fd_sc_hd__tapvpwrvgnd_1
XPHY_151 VGND VPWR sky130_fd_sc_hd__tapvpwrvgnd_1
XPHY_162 VGND VPWR sky130_fd_sc_hd__tapvpwrvgnd_1
XPHY_173 VGND VPWR sky130_fd_sc_hd__tapvpwrvgnd_1
XPHY_184 VGND VPWR sky130_fd_sc_hd__tapvpwrvgnd_1
XPHY_195 VGND VPWR sky130_fd_sc_hd__tapvpwrvgnd_1
XANTENNA_mem_right_ipin_2.sky130_fd_sc_hd__dfxbp_1_2__D mux_right_ipin_2.mux_l2_in_0_/S
+ VGND VGND VPWR VPWR sky130_fd_sc_hd__diode_2
XFILLER_11_3 VGND VGND VPWR VPWR sky130_fd_sc_hd__decap_12
XFILLER_7_91 VGND VGND VPWR VPWR sky130_fd_sc_hd__fill_2
Xmux_right_ipin_3.mux_l3_in_0_ mux_right_ipin_3.mux_l2_in_1_/X mux_right_ipin_3.mux_l2_in_0_/X
+ mux_right_ipin_3.mux_l3_in_1_/S mux_right_ipin_3.mux_l3_in_0_/X VGND VGND VPWR VPWR
+ sky130_fd_sc_hd__mux2_1
XANTENNA_mux_right_ipin_5.mux_l2_in_3__A0 _33_/HI VGND VGND VPWR VPWR sky130_fd_sc_hd__diode_2
XFILLER_13_104 VGND VGND VPWR VPWR sky130_fd_sc_hd__fill_1
XFILLER_26_23 VGND VGND VPWR VPWR sky130_fd_sc_hd__decap_8
XFILLER_26_45 VGND VGND VPWR VPWR sky130_fd_sc_hd__fill_2
XFILLER_26_89 VGND VGND VPWR VPWR sky130_fd_sc_hd__fill_1
XFILLER_42_88 VGND VGND VPWR VPWR sky130_fd_sc_hd__fill_2
XANTENNA_mem_right_ipin_7.sky130_fd_sc_hd__dfxbp_1_1__CLK prog_clk VGND VGND VPWR
+ VPWR sky130_fd_sc_hd__diode_2
XANTENNA_mux_right_ipin_10.mux_l3_in_1__S mux_right_ipin_10.mux_l3_in_1_/S VGND VGND
+ VPWR VPWR sky130_fd_sc_hd__diode_2
XANTENNA_mux_right_ipin_7.mux_l3_in_0__A0 mux_right_ipin_7.mux_l2_in_1_/X VGND VGND
+ VPWR VPWR sky130_fd_sc_hd__diode_2
XFILLER_10_129 VGND VGND VPWR VPWR sky130_fd_sc_hd__decap_12
XFILLER_12_69 VGND VGND VPWR VPWR sky130_fd_sc_hd__decap_4
XFILLER_53_76 VGND VGND VPWR VPWR sky130_fd_sc_hd__fill_2
XFILLER_53_54 VGND VGND VPWR VPWR sky130_fd_sc_hd__fill_1
X_62_ chany_bottom_in[11] chany_top_out[11] VGND VGND VPWR VPWR sky130_fd_sc_hd__buf_2
Xmux_right_ipin_3.mux_l2_in_1_ chany_bottom_in[8] chany_top_in[2] mux_right_ipin_3.mux_l2_in_3_/S
+ mux_right_ipin_3.mux_l2_in_1_/X VGND VGND VPWR VPWR sky130_fd_sc_hd__mux2_1
XANTENNA_mem_right_ipin_14.sky130_fd_sc_hd__dfxbp_1_1__D mux_right_ipin_14.mux_l1_in_0_/S
+ VGND VGND VPWR VPWR sky130_fd_sc_hd__diode_2
XFILLER_59_118 VGND VGND VPWR VPWR sky130_fd_sc_hd__fill_2
XANTENNA_mux_right_ipin_9.mux_l1_in_0__A1 chany_bottom_in[0] VGND VGND VPWR VPWR sky130_fd_sc_hd__diode_2
XFILLER_23_57 VGND VGND VPWR VPWR sky130_fd_sc_hd__fill_2
XFILLER_48_32 VGND VGND VPWR VPWR sky130_fd_sc_hd__decap_6
XFILLER_64_75 VGND VGND VPWR VPWR sky130_fd_sc_hd__decap_12
XFILLER_9_26 VGND VGND VPWR VPWR sky130_fd_sc_hd__decap_6
XANTENNA_mem_right_ipin_7.sky130_fd_sc_hd__dfxbp_1_1__D mux_right_ipin_7.mux_l1_in_0_/S
+ VGND VGND VPWR VPWR sky130_fd_sc_hd__diode_2
X_45_ chany_top_in[8] chany_bottom_out[8] VGND VGND VPWR VPWR sky130_fd_sc_hd__buf_2
XFILLER_55_132 VGND VGND VPWR VPWR sky130_fd_sc_hd__fill_2
XFILLER_18_68 VGND VGND VPWR VPWR sky130_fd_sc_hd__fill_2
XFILLER_34_45 VGND VGND VPWR VPWR sky130_fd_sc_hd__decap_12
XFILLER_50_44 VGND VGND VPWR VPWR sky130_fd_sc_hd__fill_1
Xmux_right_ipin_12.mux_l2_in_3_ _26_/HI chany_top_in[17] mux_right_ipin_12.mux_l2_in_0_/S
+ mux_right_ipin_12.mux_l2_in_3_/X VGND VGND VPWR VPWR sky130_fd_sc_hd__mux2_1
XFILLER_61_135 VGND VGND VPWR VPWR sky130_fd_sc_hd__decap_8
XFILLER_61_113 VGND VGND VPWR VPWR sky130_fd_sc_hd__decap_8
XFILLER_41_3 VGND VGND VPWR VPWR sky130_fd_sc_hd__decap_4
Xmux_right_ipin_8.mux_l3_in_0_ mux_right_ipin_8.mux_l2_in_1_/X mux_right_ipin_8.mux_l2_in_0_/X
+ mux_right_ipin_8.mux_l3_in_1_/S mux_right_ipin_8.mux_l3_in_0_/X VGND VGND VPWR VPWR
+ sky130_fd_sc_hd__mux2_1
X_28_ _28_/HI _28_/LO VGND VGND VPWR VPWR sky130_fd_sc_hd__conb_1
XFILLER_37_110 VGND VGND VPWR VPWR sky130_fd_sc_hd__fill_2
XFILLER_37_132 VGND VGND VPWR VPWR sky130_fd_sc_hd__fill_2
XFILLER_52_113 VGND VGND VPWR VPWR sky130_fd_sc_hd__fill_1
XFILLER_20_14 VGND VGND VPWR VPWR sky130_fd_sc_hd__fill_2
XANTENNA_mux_right_ipin_1.mux_l1_in_1__S mux_right_ipin_1.mux_l1_in_2_/S VGND VGND
+ VPWR VPWR sky130_fd_sc_hd__diode_2
XFILLER_29_67 VGND VGND VPWR VPWR sky130_fd_sc_hd__fill_2
XFILLER_45_88 VGND VGND VPWR VPWR sky130_fd_sc_hd__fill_2
XFILLER_45_77 VGND VGND VPWR VPWR sky130_fd_sc_hd__fill_2
XFILLER_61_87 VGND VGND VPWR VPWR sky130_fd_sc_hd__decap_6
XFILLER_61_54 VGND VGND VPWR VPWR sky130_fd_sc_hd__decap_6
XFILLER_6_16 VGND VGND VPWR VPWR sky130_fd_sc_hd__decap_3
XFILLER_6_49 VGND VGND VPWR VPWR sky130_fd_sc_hd__fill_2
XFILLER_6_27 VGND VGND VPWR VPWR sky130_fd_sc_hd__fill_2