* NGSPICE file created from cby_3__1_.ext - technology: EFS8A

* Black-box entry subcircuit for scs8hd_fill_2 abstract view
.subckt scs8hd_fill_2 vpwr vgnd
.ends

* Black-box entry subcircuit for scs8hd_diode_2 abstract view
.subckt scs8hd_diode_2 DIODE vgnd vpwr
.ends

* Black-box entry subcircuit for scs8hd_decap_12 abstract view
.subckt scs8hd_decap_12 vgnd vpwr
.ends

* Black-box entry subcircuit for scs8hd_decap_3 abstract view
.subckt scs8hd_decap_3 vgnd vpwr
.ends

* Black-box entry subcircuit for scs8hd_decap_4 abstract view
.subckt scs8hd_decap_4 vgnd vpwr
.ends

* Black-box entry subcircuit for scs8hd_ebufn_2 abstract view
.subckt scs8hd_ebufn_2 A TEB Z vgnd vpwr
.ends

* Black-box entry subcircuit for scs8hd_buf_2 abstract view
.subckt scs8hd_buf_2 A X vgnd vpwr
.ends

* Black-box entry subcircuit for scs8hd_nor2_4 abstract view
.subckt scs8hd_nor2_4 A B Y vgnd vpwr
.ends

* Black-box entry subcircuit for scs8hd_inv_1 abstract view
.subckt scs8hd_inv_1 A Y vgnd vpwr
.ends

* Black-box entry subcircuit for scs8hd_decap_6 abstract view
.subckt scs8hd_decap_6 vgnd vpwr
.ends

* Black-box entry subcircuit for scs8hd_decap_8 abstract view
.subckt scs8hd_decap_8 vgnd vpwr
.ends

* Black-box entry subcircuit for scs8hd_lpflow_inputisolatch_1 abstract view
.subckt scs8hd_lpflow_inputisolatch_1 D Q SLEEPB vgnd vpwr
.ends

* Black-box entry subcircuit for scs8hd_fill_1 abstract view
.subckt scs8hd_fill_1 vgnd vpwr
.ends

* Black-box entry subcircuit for scs8hd_tapvpwrvgnd_1 abstract view
.subckt scs8hd_tapvpwrvgnd_1 vgnd vpwr
.ends

* Black-box entry subcircuit for scs8hd_buf_1 abstract view
.subckt scs8hd_buf_1 A X vgnd vpwr
.ends

* Black-box entry subcircuit for scs8hd_conb_1 abstract view
.subckt scs8hd_conb_1 HI LO vgnd vpwr
.ends

* Black-box entry subcircuit for scs8hd_or4_4 abstract view
.subckt scs8hd_or4_4 A B C D X vgnd vpwr
.ends

* Black-box entry subcircuit for scs8hd_or3_4 abstract view
.subckt scs8hd_or3_4 A B C X vgnd vpwr
.ends

* Black-box entry subcircuit for scs8hd_inv_8 abstract view
.subckt scs8hd_inv_8 A Y vgnd vpwr
.ends

* Black-box entry subcircuit for scs8hd_or2_4 abstract view
.subckt scs8hd_or2_4 A B X vgnd vpwr
.ends

* Black-box entry subcircuit for scs8hd_nand2_4 abstract view
.subckt scs8hd_nand2_4 A B Y vgnd vpwr
.ends

* Black-box entry subcircuit for scs8hd_nor3_4 abstract view
.subckt scs8hd_nor3_4 A B C Y vgnd vpwr
.ends

.subckt cby_3__1_ address[0] address[1] address[2] address[3] address[4] address[5]
+ address[6] chany_bottom_in[0] chany_bottom_in[1] chany_bottom_in[2] chany_bottom_in[3]
+ chany_bottom_in[4] chany_bottom_in[5] chany_bottom_in[6] chany_bottom_in[7] chany_bottom_in[8]
+ chany_bottom_out[0] chany_bottom_out[1] chany_bottom_out[2] chany_bottom_out[3]
+ chany_bottom_out[4] chany_bottom_out[5] chany_bottom_out[6] chany_bottom_out[7]
+ chany_bottom_out[8] chany_top_in[0] chany_top_in[1] chany_top_in[2] chany_top_in[3]
+ chany_top_in[4] chany_top_in[5] chany_top_in[6] chany_top_in[7] chany_top_in[8]
+ chany_top_out[0] chany_top_out[1] chany_top_out[2] chany_top_out[3] chany_top_out[4]
+ chany_top_out[5] chany_top_out[6] chany_top_out[7] chany_top_out[8] data_in enable
+ left_grid_pin_1_ left_grid_pin_5_ left_grid_pin_9_ right_grid_pin_0_ right_grid_pin_10_
+ right_grid_pin_12_ right_grid_pin_14_ right_grid_pin_2_ right_grid_pin_4_ right_grid_pin_6_
+ right_grid_pin_8_ vpwr vgnd
XFILLER_13_100 vpwr vgnd scs8hd_fill_2
XFILLER_26_96 vpwr vgnd scs8hd_fill_2
XANTENNA_mux_left_ipin_5.mux_l2_in_0_.TGATE_0_.scs8hd_ebufn_2_TEB mem_left_ipin_5.LATCH_3_.latch/Q
+ vgnd vpwr scs8hd_diode_2
XFILLER_47_29 vpwr vgnd scs8hd_fill_2
XFILLER_47_18 vpwr vgnd scs8hd_fill_2
XFILLER_63_39 vgnd vpwr scs8hd_decap_12
XFILLER_10_125 vgnd vpwr scs8hd_decap_12
XFILLER_12_32 vgnd vpwr scs8hd_decap_3
XFILLER_12_65 vgnd vpwr scs8hd_decap_3
XFILLER_12_87 vgnd vpwr scs8hd_decap_4
XFILLER_37_40 vpwr vgnd scs8hd_fill_2
XFILLER_37_73 vgnd vpwr scs8hd_decap_3
XANTENNA__124__A _132_/A vgnd vpwr scs8hd_diode_2
Xmux_right_ipin_0.mux_l1_in_0_.TGATE_2_.scs8hd_ebufn_2 mux_right_ipin_0.INVTX1_2_.scs8hd_inv_1/Y
+ mem_right_ipin_0.LATCH_2_.latch/Q mux_right_ipin_0.mux_l1_in_0_.TGATE_2_.scs8hd_ebufn_2/Z
+ vgnd vpwr scs8hd_ebufn_2
Xmux_left_ipin_6.mux_l2_in_0_.TGATE_1_.scs8hd_ebufn_2 mux_left_ipin_6.mux_l2_in_0_.TGATE_1_.scs8hd_ebufn_2/A
+ mem_left_ipin_6.LATCH_4_.latch/Q mux_left_ipin_6.tap_buf4_0_.scs8hd_inv_1/A vgnd
+ vpwr scs8hd_ebufn_2
XANTENNA_mux_left_ipin_0.mux_l2_in_0_.TGATE_0_.scs8hd_ebufn_2_TEB mem_left_ipin_0.LATCH_3_.latch/Q
+ vgnd vpwr scs8hd_diode_2
XANTENNA_mem_left_ipin_0.LATCH_1_.latch_SLEEPB _169_/Y vgnd vpwr scs8hd_diode_2
X_200_ chany_top_in[0] chany_bottom_out[0] vgnd vpwr scs8hd_buf_2
XANTENNA_mux_right_ipin_1.mux_l2_in_0_.TGATE_1_.scs8hd_ebufn_2_TEB _159_/Y vgnd vpwr
+ scs8hd_diode_2
XANTENNA__209__A chany_bottom_in[0] vgnd vpwr scs8hd_diode_2
X_131_ _139_/A _131_/B _131_/Y vgnd vpwr scs8hd_nor2_4
XFILLER_23_42 vpwr vgnd scs8hd_fill_2
XFILLER_23_75 vpwr vgnd scs8hd_fill_2
XFILLER_48_83 vpwr vgnd scs8hd_fill_2
XANTENNA__110__C address[3] vgnd vpwr scs8hd_diode_2
XFILLER_9_77 vpwr vgnd scs8hd_fill_2
XANTENNA__119__A _110_/A vgnd vpwr scs8hd_diode_2
Xmux_left_ipin_4.INVTX1_1_.scs8hd_inv_1 chany_top_in[3] mux_left_ipin_4.INVTX1_1_.scs8hd_inv_1/Y
+ vgnd vpwr scs8hd_inv_1
XFILLER_47_139 vgnd vpwr scs8hd_decap_6
XFILLER_47_106 vgnd vpwr scs8hd_decap_4
XFILLER_18_42 vpwr vgnd scs8hd_fill_2
XFILLER_34_41 vgnd vpwr scs8hd_decap_3
XFILLER_50_84 vgnd vpwr scs8hd_decap_8
XFILLER_50_73 vpwr vgnd scs8hd_fill_2
X_114_ _132_/A _118_/B _114_/Y vgnd vpwr scs8hd_nor2_4
XANTENNA__121__B _120_/X vgnd vpwr scs8hd_diode_2
XANTENNA_mux_left_ipin_4.mux_l1_in_1_.TGATE_2_.scs8hd_ebufn_2_A mux_left_ipin_4.INVTX1_5_.scs8hd_inv_1/Y
+ vgnd vpwr scs8hd_diode_2
Xmux_left_ipin_5.INVTX1_5_.scs8hd_inv_1 chany_top_in[5] mux_left_ipin_5.INVTX1_5_.scs8hd_inv_1/Y
+ vgnd vpwr scs8hd_inv_1
Xmem_right_ipin_2.LATCH_1_.latch data_in _161_/A _157_/Y vgnd vpwr scs8hd_lpflow_inputisolatch_1
XFILLER_20_32 vpwr vgnd scs8hd_fill_2
XFILLER_20_43 vpwr vgnd scs8hd_fill_2
XFILLER_29_74 vpwr vgnd scs8hd_fill_2
XFILLER_45_62 vgnd vpwr scs8hd_decap_3
Xmux_left_ipin_2.mux_l1_in_1_.TGATE_1_.scs8hd_ebufn_2 mux_left_ipin_2.INVTX1_4_.scs8hd_inv_1/Y
+ mem_left_ipin_2.LATCH_1_.latch/Q mux_left_ipin_2.mux_l2_in_0_.TGATE_1_.scs8hd_ebufn_2/A
+ vgnd vpwr scs8hd_ebufn_2
XFILLER_35_109 vgnd vpwr scs8hd_fill_1
XFILLER_61_94 vpwr vgnd scs8hd_fill_2
XFILLER_61_83 vgnd vpwr scs8hd_decap_8
XFILLER_6_23 vpwr vgnd scs8hd_fill_2
XANTENNA__116__B _118_/B vgnd vpwr scs8hd_diode_2
XANTENNA__132__A _132_/A vgnd vpwr scs8hd_diode_2
XFILLER_6_89 vgnd vpwr scs8hd_decap_3
XFILLER_6_56 vpwr vgnd scs8hd_fill_2
XFILLER_6_45 vpwr vgnd scs8hd_fill_2
XFILLER_13_3 vpwr vgnd scs8hd_fill_2
XFILLER_15_10 vgnd vpwr scs8hd_decap_4
XFILLER_25_120 vpwr vgnd scs8hd_fill_2
XFILLER_40_145 vgnd vpwr scs8hd_fill_1
XFILLER_31_53 vpwr vgnd scs8hd_fill_2
XFILLER_56_83 vpwr vgnd scs8hd_fill_2
XFILLER_56_72 vgnd vpwr scs8hd_decap_8
XPHY_170 vgnd vpwr scs8hd_tapvpwrvgnd_1
XFILLER_31_101 vgnd vpwr scs8hd_decap_3
XFILLER_31_123 vgnd vpwr scs8hd_decap_12
XANTENNA__127__A _135_/A vgnd vpwr scs8hd_diode_2
XPHY_181 vgnd vpwr scs8hd_tapvpwrvgnd_1
XPHY_192 vgnd vpwr scs8hd_tapvpwrvgnd_1
XFILLER_22_145 vgnd vpwr scs8hd_fill_1
XFILLER_13_123 vgnd vpwr scs8hd_decap_12
XANTENNA_mux_left_ipin_0.mux_l1_in_1_.TGATE_0_.scs8hd_ebufn_2_A mux_left_ipin_0.INVTX1_3_.scs8hd_inv_1/Y
+ vgnd vpwr scs8hd_diode_2
XFILLER_42_85 vgnd vpwr scs8hd_decap_6
XFILLER_3_57 vpwr vgnd scs8hd_fill_2
XANTENNA_mem_left_ipin_7.LATCH_0_.latch_SLEEPB _144_/Y vgnd vpwr scs8hd_diode_2
Xmux_left_ipin_6.mux_l1_in_1_.TGATE_2_.scs8hd_ebufn_2 mux_left_ipin_6.INVTX1_5_.scs8hd_inv_1/Y
+ mem_left_ipin_6.LATCH_2_.latch/Q mux_left_ipin_6.mux_l2_in_0_.TGATE_1_.scs8hd_ebufn_2/A
+ vgnd vpwr scs8hd_ebufn_2
XANTENNA_mux_left_ipin_5.mux_l2_in_0_.TGATE_2_.scs8hd_ebufn_2_A _186_/HI vgnd vpwr
+ scs8hd_diode_2
XFILLER_6_108 vgnd vpwr scs8hd_decap_12
XFILLER_10_137 vgnd vpwr scs8hd_decap_8
XFILLER_12_44 vpwr vgnd scs8hd_fill_2
XFILLER_53_84 vpwr vgnd scs8hd_fill_2
XFILLER_53_51 vgnd vpwr scs8hd_decap_4
XANTENNA__124__B _124_/B vgnd vpwr scs8hd_diode_2
XANTENNA__140__A _132_/A vgnd vpwr scs8hd_diode_2
XANTENNA_mux_left_ipin_1.mux_l1_in_0_.TGATE_2_.scs8hd_ebufn_2_A mux_left_ipin_1.INVTX1_2_.scs8hd_inv_1/Y
+ vgnd vpwr scs8hd_diode_2
Xmem_left_ipin_1.LATCH_5_.latch data_in mem_left_ipin_1.LATCH_5_.latch/Q _173_/Y vgnd
+ vpwr scs8hd_lpflow_inputisolatch_1
Xmux_left_ipin_4.mux_l1_in_0_.TGATE_0_.scs8hd_ebufn_2 mux_left_ipin_4.INVTX1_0_.scs8hd_inv_1/Y
+ mem_left_ipin_4.LATCH_0_.latch/Q mux_left_ipin_4.mux_l2_in_0_.TGATE_0_.scs8hd_ebufn_2/A
+ vgnd vpwr scs8hd_ebufn_2
X_130_ _130_/A _131_/B vgnd vpwr scs8hd_buf_1
XFILLER_23_54 vgnd vpwr scs8hd_decap_4
XFILLER_48_51 vgnd vpwr scs8hd_decap_4
XANTENNA__110__D _110_/D vgnd vpwr scs8hd_diode_2
XFILLER_64_94 vgnd vpwr scs8hd_decap_12
XFILLER_0_25 vgnd vpwr scs8hd_decap_4
XFILLER_0_36 vgnd vpwr scs8hd_fill_1
XANTENNA__119__B address[4] vgnd vpwr scs8hd_diode_2
XANTENNA__135__A _135_/A vgnd vpwr scs8hd_diode_2
XFILLER_9_34 vpwr vgnd scs8hd_fill_2
XFILLER_43_3 vgnd vpwr scs8hd_decap_12
XANTENNA_mem_right_ipin_0.LATCH_5_.latch_D data_in vgnd vpwr scs8hd_diode_2
XANTENNA_mux_left_ipin_1.INVTX1_4_.scs8hd_inv_1_A chany_bottom_in[5] vgnd vpwr scs8hd_diode_2
Xmux_left_ipin_1.mux_l2_in_0_.TGATE_0_.scs8hd_ebufn_2 mux_left_ipin_1.mux_l1_in_0_.TGATE_0_.scs8hd_ebufn_2/Z
+ mem_left_ipin_1.LATCH_3_.latch/Q mux_left_ipin_1.tap_buf4_0_.scs8hd_inv_1/A vgnd
+ vpwr scs8hd_ebufn_2
XFILLER_18_32 vgnd vpwr scs8hd_fill_1
X_113_ _100_/B _132_/A vgnd vpwr scs8hd_buf_1
XANTENNA_mem_right_ipin_2.LATCH_1_.latch_D data_in vgnd vpwr scs8hd_diode_2
XFILLER_38_107 vgnd vpwr scs8hd_decap_12
XFILLER_61_143 vgnd vpwr scs8hd_decap_3
XFILLER_61_110 vgnd vpwr scs8hd_decap_12
XANTENNA_mux_left_ipin_5.INVTX1_5_.scs8hd_inv_1_A chany_top_in[5] vgnd vpwr scs8hd_diode_2
XANTENNA_mux_left_ipin_1.mux_l2_in_0_.TGATE_0_.scs8hd_ebufn_2_A mux_left_ipin_1.mux_l1_in_0_.TGATE_0_.scs8hd_ebufn_2/Z
+ vgnd vpwr scs8hd_diode_2
Xmux_left_ipin_2.INVTX1_1_.scs8hd_inv_1 chany_top_in[1] mux_left_ipin_2.INVTX1_1_.scs8hd_inv_1/Y
+ vgnd vpwr scs8hd_inv_1
XANTENNA_mem_left_ipin_5.LATCH_1_.latch_SLEEPB _127_/Y vgnd vpwr scs8hd_diode_2
XANTENNA_mux_right_ipin_0.INVTX1_2_.scs8hd_inv_1_A chany_bottom_in[7] vgnd vpwr scs8hd_diode_2
XFILLER_20_66 vpwr vgnd scs8hd_fill_2
XFILLER_45_52 vgnd vpwr scs8hd_decap_3
XFILLER_43_121 vgnd vpwr scs8hd_fill_1
XANTENNA__132__B _131_/B vgnd vpwr scs8hd_diode_2
Xmux_left_ipin_3.INVTX1_5_.scs8hd_inv_1 chany_top_in[7] mux_left_ipin_3.INVTX1_5_.scs8hd_inv_1/Y
+ vgnd vpwr scs8hd_inv_1
XFILLER_40_113 vgnd vpwr scs8hd_decap_12
XFILLER_40_102 vpwr vgnd scs8hd_fill_2
XFILLER_15_44 vpwr vgnd scs8hd_fill_2
XFILLER_25_143 vgnd vpwr scs8hd_decap_3
XFILLER_15_99 vgnd vpwr scs8hd_decap_12
XFILLER_31_21 vpwr vgnd scs8hd_fill_2
XFILLER_56_40 vpwr vgnd scs8hd_fill_2
Xmux_left_ipin_5.mux_l2_in_0_.TGATE_1_.scs8hd_ebufn_2 mux_left_ipin_5.mux_l2_in_0_.TGATE_1_.scs8hd_ebufn_2/A
+ mem_left_ipin_5.LATCH_4_.latch/Q mux_left_ipin_5.tap_buf4_0_.scs8hd_inv_1/A vgnd
+ vpwr scs8hd_ebufn_2
XPHY_160 vgnd vpwr scs8hd_tapvpwrvgnd_1
XPHY_171 vgnd vpwr scs8hd_tapvpwrvgnd_1
XPHY_182 vgnd vpwr scs8hd_tapvpwrvgnd_1
XPHY_193 vgnd vpwr scs8hd_tapvpwrvgnd_1
XFILLER_31_135 vgnd vpwr scs8hd_decap_8
XANTENNA__127__B _124_/B vgnd vpwr scs8hd_diode_2
XANTENNA__143__A _135_/A vgnd vpwr scs8hd_diode_2
XFILLER_7_9 vgnd vpwr scs8hd_fill_1
XANTENNA_mem_left_ipin_0.LATCH_2_.latch_D data_in vgnd vpwr scs8hd_diode_2
XFILLER_26_32 vgnd vpwr scs8hd_fill_1
XANTENNA_mem_left_ipin_1.LATCH_0_.latch_D data_in vgnd vpwr scs8hd_diode_2
XFILLER_13_135 vgnd vpwr scs8hd_decap_8
XFILLER_42_64 vpwr vgnd scs8hd_fill_2
XFILLER_3_36 vpwr vgnd scs8hd_fill_2
XANTENNA__138__A _137_/X vgnd vpwr scs8hd_diode_2
Xmem_left_ipin_2.LATCH_1_.latch data_in mem_left_ipin_2.LATCH_1_.latch/Q _085_/Y vgnd
+ vpwr scs8hd_lpflow_inputisolatch_1
XANTENNA_mux_left_ipin_4.tap_buf4_0_.scs8hd_inv_1_A mux_left_ipin_4.tap_buf4_0_.scs8hd_inv_1/A
+ vgnd vpwr scs8hd_diode_2
XFILLER_12_23 vpwr vgnd scs8hd_fill_2
XANTENNA_mux_left_ipin_3.mux_l1_in_0_.TGATE_2_.scs8hd_ebufn_2_TEB mem_left_ipin_3.LATCH_2_.latch/Q
+ vgnd vpwr scs8hd_diode_2
XANTENNA_mem_left_ipin_3.LATCH_2_.latch_SLEEPB _103_/Y vgnd vpwr scs8hd_diode_2
XFILLER_37_53 vpwr vgnd scs8hd_fill_2
XFILLER_37_86 vgnd vpwr scs8hd_fill_1
XFILLER_5_120 vpwr vgnd scs8hd_fill_2
Xmem_left_ipin_4.LATCH_4_.latch data_in mem_left_ipin_4.LATCH_4_.latch/Q _114_/Y vgnd
+ vpwr scs8hd_lpflow_inputisolatch_1
XANTENNA__140__B _139_/B vgnd vpwr scs8hd_diode_2
XANTENNA_mux_right_ipin_0.tap_buf4_0_.scs8hd_inv_1_A mux_right_ipin_0.tap_buf4_0_.scs8hd_inv_1/A
+ vgnd vpwr scs8hd_diode_2
Xmux_left_ipin_1.mux_l1_in_1_.TGATE_1_.scs8hd_ebufn_2 mux_left_ipin_1.INVTX1_4_.scs8hd_inv_1/Y
+ mem_left_ipin_1.LATCH_1_.latch/Q mux_left_ipin_1.mux_l1_in_1_.TGATE_2_.scs8hd_ebufn_2/Z
+ vgnd vpwr scs8hd_ebufn_2
XFILLER_3_3 vgnd vpwr scs8hd_decap_6
XANTENNA__119__C _095_/C vgnd vpwr scs8hd_diode_2
X_189_ _189_/HI _189_/LO vgnd vpwr scs8hd_conb_1
XANTENNA_mux_left_ipin_6.mux_l1_in_1_.TGATE_2_.scs8hd_ebufn_2_TEB mem_left_ipin_6.LATCH_2_.latch/Q
+ vgnd vpwr scs8hd_diode_2
XANTENNA__135__B _131_/B vgnd vpwr scs8hd_diode_2
XFILLER_9_57 vpwr vgnd scs8hd_fill_2
XANTENNA_mux_left_ipin_3.INVTX1_2_.scs8hd_inv_1_A chany_bottom_in[3] vgnd vpwr scs8hd_diode_2
XANTENNA__151__A _151_/A vgnd vpwr scs8hd_diode_2
XANTENNA_mem_left_ipin_4.LATCH_4_.latch_D data_in vgnd vpwr scs8hd_diode_2
XFILLER_36_3 vgnd vpwr scs8hd_decap_12
XANTENNA_mem_left_ipin_5.LATCH_2_.latch_D data_in vgnd vpwr scs8hd_diode_2
XANTENNA_mux_left_ipin_7.INVTX1_3_.scs8hd_inv_1_A chany_top_in[6] vgnd vpwr scs8hd_diode_2
XANTENNA_mem_left_ipin_6.LATCH_0_.latch_D data_in vgnd vpwr scs8hd_diode_2
XFILLER_18_11 vgnd vpwr scs8hd_decap_3
XFILLER_18_66 vgnd vpwr scs8hd_decap_4
X_112_ _139_/A _118_/B _112_/Y vgnd vpwr scs8hd_nor2_4
XFILLER_59_95 vgnd vpwr scs8hd_decap_3
XFILLER_59_73 vpwr vgnd scs8hd_fill_2
XFILLER_59_51 vpwr vgnd scs8hd_fill_2
Xmux_right_ipin_0.INVTX1_2_.scs8hd_inv_1 chany_bottom_in[7] mux_right_ipin_0.INVTX1_2_.scs8hd_inv_1/Y
+ vgnd vpwr scs8hd_inv_1
XANTENNA_mux_right_ipin_2.INVTX1_0_.scs8hd_inv_1_A chany_bottom_in[1] vgnd vpwr scs8hd_diode_2
XFILLER_38_119 vgnd vpwr scs8hd_decap_12
Xmux_left_ipin_1.tap_buf4_0_.scs8hd_inv_1 mux_left_ipin_1.tap_buf4_0_.scs8hd_inv_1/A
+ right_grid_pin_2_ vgnd vpwr scs8hd_inv_1
XANTENNA__146__A _145_/X vgnd vpwr scs8hd_diode_2
XANTENNA_mux_left_ipin_5.mux_l1_in_1_.TGATE_2_.scs8hd_ebufn_2_A mux_left_ipin_5.INVTX1_5_.scs8hd_inv_1/Y
+ vgnd vpwr scs8hd_diode_2
XFILLER_29_108 vgnd vpwr scs8hd_decap_12
XANTENNA_mux_left_ipin_1.mux_l1_in_1_.TGATE_2_.scs8hd_ebufn_2_TEB mem_left_ipin_1.LATCH_2_.latch/Q
+ vgnd vpwr scs8hd_diode_2
XFILLER_20_23 vgnd vpwr scs8hd_decap_4
XFILLER_20_89 vgnd vpwr scs8hd_fill_1
XFILLER_45_31 vgnd vpwr scs8hd_decap_4
XFILLER_45_97 vpwr vgnd scs8hd_fill_2
XFILLER_43_111 vpwr vgnd scs8hd_fill_2
Xmux_left_ipin_5.mux_l1_in_1_.TGATE_2_.scs8hd_ebufn_2 mux_left_ipin_5.INVTX1_5_.scs8hd_inv_1/Y
+ mem_left_ipin_5.LATCH_2_.latch/Q mux_left_ipin_5.mux_l2_in_0_.TGATE_1_.scs8hd_ebufn_2/A
+ vgnd vpwr scs8hd_ebufn_2
XANTENNA_mem_left_ipin_1.LATCH_3_.latch_SLEEPB _175_/Y vgnd vpwr scs8hd_diode_2
XFILLER_40_125 vgnd vpwr scs8hd_decap_12
XANTENNA_mem_right_ipin_1.LATCH_0_.latch_SLEEPB _156_/Y vgnd vpwr scs8hd_diode_2
XFILLER_25_100 vpwr vgnd scs8hd_fill_2
XANTENNA_mux_left_ipin_5.mux_l1_in_0_.TGATE_1_.scs8hd_ebufn_2_TEB mem_left_ipin_5.LATCH_1_.latch/Q
+ vgnd vpwr scs8hd_diode_2
XFILLER_31_77 vpwr vgnd scs8hd_fill_2
Xmux_left_ipin_0.INVTX1_1_.scs8hd_inv_1 chany_top_in[0] mux_left_ipin_0.INVTX1_1_.scs8hd_inv_1/Y
+ vgnd vpwr scs8hd_inv_1
XPHY_150 vgnd vpwr scs8hd_tapvpwrvgnd_1
XPHY_161 vgnd vpwr scs8hd_tapvpwrvgnd_1
XPHY_172 vgnd vpwr scs8hd_tapvpwrvgnd_1
XPHY_183 vgnd vpwr scs8hd_tapvpwrvgnd_1
XPHY_194 vgnd vpwr scs8hd_tapvpwrvgnd_1
XANTENNA__143__B _139_/B vgnd vpwr scs8hd_diode_2
Xmux_left_ipin_3.mux_l1_in_0_.TGATE_0_.scs8hd_ebufn_2 mux_left_ipin_3.INVTX1_0_.scs8hd_inv_1/Y
+ mem_left_ipin_3.LATCH_0_.latch/Q mux_left_ipin_3.mux_l1_in_0_.TGATE_0_.scs8hd_ebufn_2/Z
+ vgnd vpwr scs8hd_ebufn_2
Xmem_left_ipin_5.LATCH_0_.latch data_in mem_left_ipin_5.LATCH_0_.latch/Q _128_/Y vgnd
+ vpwr scs8hd_lpflow_inputisolatch_1
XFILLER_26_55 vgnd vpwr scs8hd_decap_8
XFILLER_26_66 vgnd vpwr scs8hd_decap_4
XFILLER_42_32 vgnd vpwr scs8hd_decap_4
XFILLER_26_88 vgnd vpwr scs8hd_decap_4
Xmem_right_ipin_0.LATCH_4_.latch data_in mem_right_ipin_0.LATCH_4_.latch/Q _150_/Y
+ vgnd vpwr scs8hd_lpflow_inputisolatch_1
XANTENNA_mux_left_ipin_1.mux_l1_in_1_.TGATE_0_.scs8hd_ebufn_2_A mux_left_ipin_1.INVTX1_3_.scs8hd_inv_1/Y
+ vgnd vpwr scs8hd_diode_2
Xmux_left_ipin_1.INVTX1_5_.scs8hd_inv_1 chany_top_in[5] mux_left_ipin_1.INVTX1_5_.scs8hd_inv_1/Y
+ vgnd vpwr scs8hd_inv_1
XFILLER_3_15 vpwr vgnd scs8hd_fill_2
XANTENNA_mux_left_ipin_0.mux_l1_in_0_.TGATE_1_.scs8hd_ebufn_2_TEB mem_left_ipin_0.LATCH_1_.latch/Q
+ vgnd vpwr scs8hd_diode_2
XANTENNA__154__A _144_/A vgnd vpwr scs8hd_diode_2
Xmux_left_ipin_0.mux_l2_in_0_.TGATE_0_.scs8hd_ebufn_2 mux_left_ipin_0.mux_l1_in_0_.TGATE_0_.scs8hd_ebufn_2/Z
+ mem_left_ipin_0.LATCH_3_.latch/Q mux_left_ipin_0.tap_buf4_0_.scs8hd_inv_1/A vgnd
+ vpwr scs8hd_ebufn_2
Xmem_left_ipin_7.LATCH_3_.latch data_in mem_left_ipin_7.LATCH_3_.latch/Q _141_/Y vgnd
+ vpwr scs8hd_lpflow_inputisolatch_1
XFILLER_10_106 vgnd vpwr scs8hd_decap_4
XANTENNA_mux_left_ipin_6.mux_l2_in_0_.TGATE_2_.scs8hd_ebufn_2_A _187_/HI vgnd vpwr
+ scs8hd_diode_2
XFILLER_37_21 vgnd vpwr scs8hd_decap_4
XFILLER_37_98 vgnd vpwr scs8hd_decap_6
XFILLER_53_75 vgnd vpwr scs8hd_decap_4
XFILLER_5_143 vgnd vpwr scs8hd_decap_3
XANTENNA__149__A _139_/A vgnd vpwr scs8hd_diode_2
Xmux_left_ipin_7.INVTX1_2_.scs8hd_inv_1 chany_bottom_in[6] mux_left_ipin_7.INVTX1_2_.scs8hd_inv_1/Y
+ vgnd vpwr scs8hd_inv_1
XFILLER_59_128 vpwr vgnd scs8hd_fill_2
Xmux_left_ipin_7.mux_l1_in_0_.TGATE_1_.scs8hd_ebufn_2 mux_left_ipin_7.INVTX1_1_.scs8hd_inv_1/Y
+ mem_left_ipin_7.LATCH_1_.latch/Q mux_left_ipin_7.mux_l2_in_0_.TGATE_0_.scs8hd_ebufn_2/A
+ vgnd vpwr scs8hd_ebufn_2
XFILLER_4_91 vgnd vpwr scs8hd_fill_1
XANTENNA_mux_left_ipin_2.mux_l1_in_0_.TGATE_2_.scs8hd_ebufn_2_A mux_left_ipin_2.INVTX1_2_.scs8hd_inv_1/Y
+ vgnd vpwr scs8hd_diode_2
XANTENNA_mux_left_ipin_3.mux_l1_in_1_.TGATE_1_.scs8hd_ebufn_2_TEB mem_left_ipin_3.LATCH_1_.latch/Q
+ vgnd vpwr scs8hd_diode_2
XANTENNA_mux_left_ipin_5.INVTX1_0_.scs8hd_inv_1_A chany_bottom_in[0] vgnd vpwr scs8hd_diode_2
XFILLER_23_12 vpwr vgnd scs8hd_fill_2
XFILLER_23_23 vpwr vgnd scs8hd_fill_2
XFILLER_2_102 vgnd vpwr scs8hd_decap_8
XANTENNA_mux_right_ipin_0.mux_l1_in_0_.TGATE_2_.scs8hd_ebufn_2_A mux_right_ipin_0.INVTX1_2_.scs8hd_inv_1/Y
+ vgnd vpwr scs8hd_diode_2
XFILLER_64_63 vgnd vpwr scs8hd_decap_12
X_188_ _188_/HI _188_/LO vgnd vpwr scs8hd_conb_1
XANTENNA__151__B _149_/B vgnd vpwr scs8hd_diode_2
XFILLER_29_3 vpwr vgnd scs8hd_fill_2
XANTENNA_mux_left_ipin_7.mux_l1_in_0_.TGATE_0_.scs8hd_ebufn_2_TEB mem_left_ipin_7.LATCH_0_.latch/Q
+ vgnd vpwr scs8hd_diode_2
XFILLER_18_23 vgnd vpwr scs8hd_decap_4
Xmux_left_ipin_4.mux_l2_in_0_.TGATE_1_.scs8hd_ebufn_2 mux_left_ipin_4.mux_l1_in_1_.TGATE_1_.scs8hd_ebufn_2/Z
+ mem_left_ipin_4.LATCH_4_.latch/Q mux_left_ipin_4.tap_buf4_0_.scs8hd_inv_1/A vgnd
+ vpwr scs8hd_ebufn_2
XFILLER_34_88 vpwr vgnd scs8hd_fill_2
XFILLER_50_32 vgnd vpwr scs8hd_decap_6
X_111_ _110_/X _118_/B vgnd vpwr scs8hd_buf_1
XFILLER_61_123 vgnd vpwr scs8hd_decap_12
XANTENNA__162__A _162_/A vgnd vpwr scs8hd_diode_2
XANTENNA_mux_left_ipin_2.mux_l2_in_0_.TGATE_0_.scs8hd_ebufn_2_A mux_left_ipin_2.mux_l2_in_0_.TGATE_0_.scs8hd_ebufn_2/A
+ vgnd vpwr scs8hd_diode_2
XFILLER_52_145 vgnd vpwr scs8hd_fill_1
XFILLER_1_81 vpwr vgnd scs8hd_fill_2
XANTENNA__072__A address[5] vgnd vpwr scs8hd_diode_2
XFILLER_29_44 vpwr vgnd scs8hd_fill_2
XANTENNA_mux_right_ipin_0.mux_l2_in_0_.TGATE_0_.scs8hd_ebufn_2_A mux_right_ipin_0.mux_l1_in_0_.TGATE_2_.scs8hd_ebufn_2/Z
+ vgnd vpwr scs8hd_diode_2
XFILLER_29_55 vgnd vpwr scs8hd_decap_4
XFILLER_45_76 vpwr vgnd scs8hd_fill_2
XFILLER_6_15 vgnd vpwr scs8hd_decap_8
XANTENNA_mux_left_ipin_2.mux_l1_in_0_.TGATE_0_.scs8hd_ebufn_2_TEB mem_left_ipin_2.LATCH_0_.latch/Q
+ vgnd vpwr scs8hd_diode_2
XFILLER_20_7 vgnd vpwr scs8hd_decap_12
XFILLER_19_120 vpwr vgnd scs8hd_fill_2
XANTENNA__157__A _077_/B vgnd vpwr scs8hd_diode_2
XFILLER_34_145 vgnd vpwr scs8hd_fill_1
Xmem_right_ipin_1.LATCH_0_.latch data_in _160_/A _156_/Y vgnd vpwr scs8hd_lpflow_inputisolatch_1
XFILLER_25_112 vgnd vpwr scs8hd_decap_8
XFILLER_25_123 vgnd vpwr scs8hd_decap_12
XFILLER_40_137 vgnd vpwr scs8hd_decap_8
XANTENNA__067__A address[1] vgnd vpwr scs8hd_diode_2
XFILLER_15_57 vpwr vgnd scs8hd_fill_2
XFILLER_31_34 vpwr vgnd scs8hd_fill_2
XFILLER_56_53 vgnd vpwr scs8hd_decap_6
XPHY_140 vgnd vpwr scs8hd_tapvpwrvgnd_1
XPHY_151 vgnd vpwr scs8hd_tapvpwrvgnd_1
XPHY_162 vgnd vpwr scs8hd_tapvpwrvgnd_1
XPHY_173 vgnd vpwr scs8hd_tapvpwrvgnd_1
XPHY_184 vgnd vpwr scs8hd_tapvpwrvgnd_1
XPHY_195 vgnd vpwr scs8hd_tapvpwrvgnd_1
XFILLER_11_3 vgnd vpwr scs8hd_decap_12
Xmux_left_ipin_0.mux_l1_in_1_.TGATE_1_.scs8hd_ebufn_2 mux_left_ipin_0.INVTX1_4_.scs8hd_inv_1/Y
+ mem_left_ipin_0.LATCH_1_.latch/Q mux_left_ipin_0.mux_l1_in_1_.TGATE_0_.scs8hd_ebufn_2/Z
+ vgnd vpwr scs8hd_ebufn_2
XFILLER_22_104 vpwr vgnd scs8hd_fill_2
XFILLER_22_115 vgnd vpwr scs8hd_decap_12
XANTENNA_mux_left_ipin_5.mux_l1_in_1_.TGATE_0_.scs8hd_ebufn_2_TEB mem_left_ipin_5.LATCH_0_.latch/Q
+ vgnd vpwr scs8hd_diode_2
XFILLER_13_104 vpwr vgnd scs8hd_fill_2
XFILLER_26_23 vgnd vpwr scs8hd_decap_4
XFILLER_42_77 vpwr vgnd scs8hd_fill_2
XFILLER_59_3 vgnd vpwr scs8hd_decap_12
XANTENNA_mem_left_ipin_6.LATCH_3_.latch_SLEEPB _133_/Y vgnd vpwr scs8hd_diode_2
XANTENNA__154__B _149_/B vgnd vpwr scs8hd_diode_2
XFILLER_8_130 vgnd vpwr scs8hd_decap_12
XANTENNA__170__A _088_/B vgnd vpwr scs8hd_diode_2
XANTENNA__080__A _069_/A vgnd vpwr scs8hd_diode_2
XANTENNA_mux_left_ipin_0.mux_l1_in_1_.TGATE_0_.scs8hd_ebufn_2_TEB mem_left_ipin_0.LATCH_0_.latch/Q
+ vgnd vpwr scs8hd_diode_2
XANTENNA__149__B _149_/B vgnd vpwr scs8hd_diode_2
XANTENNA__165__A _179_/B vgnd vpwr scs8hd_diode_2
XFILLER_4_70 vpwr vgnd scs8hd_fill_2
Xmux_left_ipin_4.mux_l1_in_1_.TGATE_2_.scs8hd_ebufn_2 mux_left_ipin_4.INVTX1_5_.scs8hd_inv_1/Y
+ mem_left_ipin_4.LATCH_2_.latch/Q mux_left_ipin_4.mux_l1_in_1_.TGATE_1_.scs8hd_ebufn_2/Z
+ vgnd vpwr scs8hd_ebufn_2
XANTENNA__075__A _093_/A vgnd vpwr scs8hd_diode_2
XFILLER_48_32 vgnd vpwr scs8hd_decap_6
XFILLER_48_87 vgnd vpwr scs8hd_decap_3
XFILLER_64_75 vgnd vpwr scs8hd_decap_12
X_187_ _187_/HI _187_/LO vgnd vpwr scs8hd_conb_1
XFILLER_50_7 vgnd vpwr scs8hd_decap_12
Xmem_left_ipin_0.LATCH_4_.latch data_in mem_left_ipin_0.LATCH_4_.latch/Q _166_/Y vgnd
+ vpwr scs8hd_lpflow_inputisolatch_1
Xmux_left_ipin_5.INVTX1_2_.scs8hd_inv_1 chany_bottom_in[4] mux_left_ipin_5.INVTX1_2_.scs8hd_inv_1/Y
+ vgnd vpwr scs8hd_inv_1
XFILLER_55_132 vgnd vpwr scs8hd_decap_12
XFILLER_18_46 vpwr vgnd scs8hd_fill_2
X_110_ _110_/A address[4] address[3] _110_/D _110_/X vgnd vpwr scs8hd_or4_4
XFILLER_34_67 vpwr vgnd scs8hd_fill_2
XFILLER_50_77 vpwr vgnd scs8hd_fill_2
Xmux_left_ipin_2.mux_l1_in_0_.TGATE_0_.scs8hd_ebufn_2 mux_left_ipin_2.INVTX1_0_.scs8hd_inv_1/Y
+ mem_left_ipin_2.LATCH_0_.latch/Q mux_left_ipin_2.mux_l2_in_0_.TGATE_0_.scs8hd_ebufn_2/A
+ vgnd vpwr scs8hd_ebufn_2
XFILLER_61_135 vgnd vpwr scs8hd_decap_8
XANTENNA_mux_left_ipin_6.mux_l1_in_1_.TGATE_2_.scs8hd_ebufn_2_A mux_left_ipin_6.INVTX1_5_.scs8hd_inv_1/Y
+ vgnd vpwr scs8hd_diode_2
XFILLER_41_3 vgnd vpwr scs8hd_decap_12
XFILLER_37_121 vgnd vpwr scs8hd_fill_1
XFILLER_37_143 vgnd vpwr scs8hd_decap_3
XFILLER_52_113 vgnd vpwr scs8hd_decap_12
XFILLER_52_102 vgnd vpwr scs8hd_decap_8
XANTENNA__072__B address[6] vgnd vpwr scs8hd_diode_2
XFILLER_20_47 vpwr vgnd scs8hd_fill_2
XANTENNA_mem_left_ipin_4.LATCH_4_.latch_SLEEPB _114_/Y vgnd vpwr scs8hd_diode_2
XANTENNA_mux_right_ipin_0.mux_l1_in_0_.TGATE_0_.scs8hd_ebufn_2_TEB mem_right_ipin_0.LATCH_0_.latch/Q
+ vgnd vpwr scs8hd_diode_2
XFILLER_29_12 vpwr vgnd scs8hd_fill_2
XFILLER_29_23 vpwr vgnd scs8hd_fill_2
XFILLER_29_78 vpwr vgnd scs8hd_fill_2
XFILLER_61_98 vgnd vpwr scs8hd_decap_12
XFILLER_61_65 vpwr vgnd scs8hd_fill_2
XFILLER_6_27 vpwr vgnd scs8hd_fill_2
XFILLER_13_7 vgnd vpwr scs8hd_decap_12
XFILLER_19_143 vgnd vpwr scs8hd_decap_3
XANTENNA__157__B _147_/D vgnd vpwr scs8hd_diode_2
XFILLER_34_102 vpwr vgnd scs8hd_fill_2
XFILLER_34_113 vgnd vpwr scs8hd_decap_12
XANTENNA__173__A _179_/B vgnd vpwr scs8hd_diode_2
XFILLER_25_135 vgnd vpwr scs8hd_decap_8
XANTENNA__083__A address[1] vgnd vpwr scs8hd_diode_2
XFILLER_31_57 vpwr vgnd scs8hd_fill_2
XFILLER_56_32 vpwr vgnd scs8hd_fill_2
XFILLER_56_87 vgnd vpwr scs8hd_decap_3
XPHY_141 vgnd vpwr scs8hd_tapvpwrvgnd_1
XPHY_130 vgnd vpwr scs8hd_tapvpwrvgnd_1
XPHY_152 vgnd vpwr scs8hd_tapvpwrvgnd_1
XFILLER_16_102 vgnd vpwr scs8hd_decap_12
XPHY_163 vgnd vpwr scs8hd_tapvpwrvgnd_1
XPHY_174 vgnd vpwr scs8hd_tapvpwrvgnd_1
XPHY_185 vgnd vpwr scs8hd_tapvpwrvgnd_1
XPHY_196 vgnd vpwr scs8hd_tapvpwrvgnd_1
Xmux_left_ipin_6.mux_l1_in_0_.TGATE_1_.scs8hd_ebufn_2 mux_left_ipin_6.INVTX1_1_.scs8hd_inv_1/Y
+ mem_left_ipin_6.LATCH_1_.latch/Q mux_left_ipin_6.mux_l2_in_0_.TGATE_0_.scs8hd_ebufn_2/A
+ vgnd vpwr scs8hd_ebufn_2
XANTENNA__168__A _102_/A vgnd vpwr scs8hd_diode_2
XFILLER_22_127 vgnd vpwr scs8hd_decap_12
XFILLER_7_92 vgnd vpwr scs8hd_fill_1
XANTENNA__078__A _078_/A vgnd vpwr scs8hd_diode_2
XFILLER_42_45 vpwr vgnd scs8hd_fill_2
XFILLER_9_109 vpwr vgnd scs8hd_fill_2
XANTENNA_mux_left_ipin_2.mux_l1_in_1_.TGATE_0_.scs8hd_ebufn_2_A mux_left_ipin_2.INVTX1_3_.scs8hd_inv_1/Y
+ vgnd vpwr scs8hd_diode_2
XFILLER_8_142 vgnd vpwr scs8hd_decap_4
XANTENNA__170__B _168_/B vgnd vpwr scs8hd_diode_2
Xmux_left_ipin_3.mux_l2_in_0_.TGATE_1_.scs8hd_ebufn_2 mux_left_ipin_3.mux_l2_in_0_.TGATE_1_.scs8hd_ebufn_2/A
+ mem_left_ipin_3.LATCH_4_.latch/Q mux_left_ipin_3.tap_buf4_0_.scs8hd_inv_1/A vgnd
+ vpwr scs8hd_ebufn_2
XANTENNA_mux_right_ipin_0.mux_l1_in_1_.TGATE_0_.scs8hd_ebufn_2_A mux_right_ipin_0.INVTX1_3_.scs8hd_inv_1/Y
+ vgnd vpwr scs8hd_diode_2
XFILLER_12_15 vgnd vpwr scs8hd_decap_4
XFILLER_12_48 vpwr vgnd scs8hd_fill_2
XANTENNA_mux_left_ipin_7.mux_l2_in_0_.TGATE_2_.scs8hd_ebufn_2_A _188_/HI vgnd vpwr
+ scs8hd_diode_2
XANTENNA__080__B address[2] vgnd vpwr scs8hd_diode_2
XFILLER_37_78 vgnd vpwr scs8hd_decap_8
XFILLER_53_88 vgnd vpwr scs8hd_decap_3
XFILLER_53_22 vgnd vpwr scs8hd_fill_1
XANTENNA_mem_left_ipin_2.LATCH_5_.latch_SLEEPB _179_/Y vgnd vpwr scs8hd_diode_2
Xmem_left_ipin_1.LATCH_0_.latch data_in mem_left_ipin_1.LATCH_0_.latch/Q _178_/Y vgnd
+ vpwr scs8hd_lpflow_inputisolatch_1
XFILLER_5_123 vgnd vpwr scs8hd_decap_12
XFILLER_5_112 vgnd vpwr scs8hd_decap_8
XFILLER_5_101 vgnd vpwr scs8hd_decap_4
XANTENNA__165__B _168_/B vgnd vpwr scs8hd_diode_2
XANTENNA_mux_left_ipin_3.mux_l1_in_0_.TGATE_2_.scs8hd_ebufn_2_A mux_left_ipin_3.INVTX1_2_.scs8hd_inv_1/Y
+ vgnd vpwr scs8hd_diode_2
XANTENNA__075__B _095_/B vgnd vpwr scs8hd_diode_2
XANTENNA__091__A _091_/A vgnd vpwr scs8hd_diode_2
XFILLER_23_58 vgnd vpwr scs8hd_fill_1
XANTENNA_mux_left_ipin_0.INVTX1_3_.scs8hd_inv_1_A chany_top_in[4] vgnd vpwr scs8hd_diode_2
XFILLER_48_66 vpwr vgnd scs8hd_fill_2
XFILLER_64_87 vgnd vpwr scs8hd_decap_6
XFILLER_64_32 vgnd vpwr scs8hd_decap_12
XFILLER_0_18 vgnd vpwr scs8hd_decap_4
Xmem_left_ipin_3.LATCH_3_.latch data_in mem_left_ipin_3.LATCH_3_.latch/Q _101_/Y vgnd
+ vpwr scs8hd_lpflow_inputisolatch_1
XFILLER_9_38 vgnd vpwr scs8hd_decap_4
X_186_ _186_/HI _186_/LO vgnd vpwr scs8hd_conb_1
XANTENNA_mux_left_ipin_4.INVTX1_4_.scs8hd_inv_1_A chany_bottom_in[8] vgnd vpwr scs8hd_diode_2
XANTENNA__176__A _102_/A vgnd vpwr scs8hd_diode_2
Xmux_left_ipin_7.mux_l2_in_0_.TGATE_2_.scs8hd_ebufn_2 _188_/HI mem_left_ipin_7.LATCH_5_.latch/Q
+ mux_left_ipin_7.tap_buf4_0_.scs8hd_inv_1/A vgnd vpwr scs8hd_ebufn_2
XFILLER_55_144 vpwr vgnd scs8hd_fill_2
XANTENNA__086__A address[1] vgnd vpwr scs8hd_diode_2
XFILLER_34_46 vpwr vgnd scs8hd_fill_2
XFILLER_59_32 vpwr vgnd scs8hd_fill_2
XFILLER_1_3 vgnd vpwr scs8hd_decap_12
X_169_ _104_/A _168_/B _169_/Y vgnd vpwr scs8hd_nor2_4
XFILLER_34_3 vgnd vpwr scs8hd_decap_12
XFILLER_52_125 vgnd vpwr scs8hd_decap_12
XANTENNA_mux_left_ipin_3.mux_l2_in_0_.TGATE_0_.scs8hd_ebufn_2_A mux_left_ipin_3.mux_l1_in_0_.TGATE_0_.scs8hd_ebufn_2/Z
+ vgnd vpwr scs8hd_diode_2
XANTENNA_mem_left_ipin_0.LATCH_5_.latch_D data_in vgnd vpwr scs8hd_diode_2
XANTENNA_mux_right_ipin_1.mux_l2_in_0_.TGATE_0_.scs8hd_ebufn_2_A mux_right_ipin_1.mux_l2_in_0_.TGATE_0_.scs8hd_ebufn_2/A
+ vgnd vpwr scs8hd_diode_2
XFILLER_61_44 vgnd vpwr scs8hd_decap_12
XANTENNA_mem_left_ipin_1.LATCH_3_.latch_D data_in vgnd vpwr scs8hd_diode_2
Xmux_left_ipin_3.INVTX1_2_.scs8hd_inv_1 chany_bottom_in[3] mux_left_ipin_3.INVTX1_2_.scs8hd_inv_1/Y
+ vgnd vpwr scs8hd_inv_1
XANTENNA_mem_left_ipin_2.LATCH_1_.latch_D data_in vgnd vpwr scs8hd_diode_2
XANTENNA__157__C _069_/C vgnd vpwr scs8hd_diode_2
XFILLER_34_125 vgnd vpwr scs8hd_decap_12
XANTENNA__173__B _177_/B vgnd vpwr scs8hd_diode_2
XFILLER_40_106 vgnd vpwr scs8hd_decap_4
XFILLER_15_48 vpwr vgnd scs8hd_fill_2
XANTENNA__083__B address[2] vgnd vpwr scs8hd_diode_2
XANTENNA_mux_left_ipin_3.mux_l2_in_0_.TGATE_2_.scs8hd_ebufn_2_TEB mem_left_ipin_3.LATCH_5_.latch/Q
+ vgnd vpwr scs8hd_diode_2
XANTENNA_mem_right_ipin_0.LATCH_3_.latch_SLEEPB _151_/Y vgnd vpwr scs8hd_diode_2
XFILLER_56_11 vgnd vpwr scs8hd_decap_3
XFILLER_16_114 vgnd vpwr scs8hd_decap_12
XPHY_120 vgnd vpwr scs8hd_decap_3
XPHY_142 vgnd vpwr scs8hd_tapvpwrvgnd_1
XPHY_131 vgnd vpwr scs8hd_tapvpwrvgnd_1
XPHY_153 vgnd vpwr scs8hd_tapvpwrvgnd_1
XPHY_164 vgnd vpwr scs8hd_tapvpwrvgnd_1
XPHY_175 vgnd vpwr scs8hd_tapvpwrvgnd_1
XFILLER_31_106 vgnd vpwr scs8hd_decap_12
XFILLER_21_91 vpwr vgnd scs8hd_fill_2
XPHY_186 vgnd vpwr scs8hd_tapvpwrvgnd_1
XPHY_197 vgnd vpwr scs8hd_tapvpwrvgnd_1
Xmux_left_ipin_3.mux_l1_in_1_.TGATE_2_.scs8hd_ebufn_2 mux_left_ipin_3.INVTX1_5_.scs8hd_inv_1/Y
+ mem_left_ipin_3.LATCH_2_.latch/Q mux_left_ipin_3.mux_l2_in_0_.TGATE_1_.scs8hd_ebufn_2/A
+ vgnd vpwr scs8hd_ebufn_2
XPHY_0 vgnd vpwr scs8hd_decap_3