* NGSPICE file created from cby_3__1_.ext - technology: EFS8A

* Black-box entry subcircuit for scs8hd_decap_4 abstract view
.subckt scs8hd_decap_4 vgnd vpwr
.ends

* Black-box entry subcircuit for scs8hd_fill_2 abstract view
.subckt scs8hd_fill_2 vpwr vgnd
.ends

* Black-box entry subcircuit for scs8hd_diode_2 abstract view
.subckt scs8hd_diode_2 DIODE vgnd vpwr
.ends

* Black-box entry subcircuit for scs8hd_decap_12 abstract view
.subckt scs8hd_decap_12 vgnd vpwr
.ends

* Black-box entry subcircuit for scs8hd_decap_3 abstract view
.subckt scs8hd_decap_3 vgnd vpwr
.ends

* Black-box entry subcircuit for scs8hd_ebufn_2 abstract view
.subckt scs8hd_ebufn_2 A TEB Z vgnd vpwr
.ends

* Black-box entry subcircuit for scs8hd_buf_2 abstract view
.subckt scs8hd_buf_2 A X vgnd vpwr
.ends

* Black-box entry subcircuit for scs8hd_nor2_4 abstract view
.subckt scs8hd_nor2_4 A B Y vgnd vpwr
.ends

* Black-box entry subcircuit for scs8hd_inv_1 abstract view
.subckt scs8hd_inv_1 A Y vgnd vpwr
.ends

* Black-box entry subcircuit for scs8hd_fill_1 abstract view
.subckt scs8hd_fill_1 vgnd vpwr
.ends

* Black-box entry subcircuit for scs8hd_lpflow_inputisolatch_1 abstract view
.subckt scs8hd_lpflow_inputisolatch_1 D Q SLEEPB vgnd vpwr
.ends

* Black-box entry subcircuit for scs8hd_tapvpwrvgnd_1 abstract view
.subckt scs8hd_tapvpwrvgnd_1 vgnd vpwr
.ends

* Black-box entry subcircuit for scs8hd_decap_8 abstract view
.subckt scs8hd_decap_8 vgnd vpwr
.ends

* Black-box entry subcircuit for scs8hd_decap_6 abstract view
.subckt scs8hd_decap_6 vgnd vpwr
.ends

* Black-box entry subcircuit for scs8hd_buf_1 abstract view
.subckt scs8hd_buf_1 A X vgnd vpwr
.ends

* Black-box entry subcircuit for scs8hd_conb_1 abstract view
.subckt scs8hd_conb_1 HI LO vgnd vpwr
.ends

* Black-box entry subcircuit for scs8hd_or4_4 abstract view
.subckt scs8hd_or4_4 A B C D X vgnd vpwr
.ends

* Black-box entry subcircuit for scs8hd_or3_4 abstract view
.subckt scs8hd_or3_4 A B C X vgnd vpwr
.ends

* Black-box entry subcircuit for scs8hd_inv_8 abstract view
.subckt scs8hd_inv_8 A Y vgnd vpwr
.ends

* Black-box entry subcircuit for scs8hd_or2_4 abstract view
.subckt scs8hd_or2_4 A B X vgnd vpwr
.ends

* Black-box entry subcircuit for scs8hd_nand2_4 abstract view
.subckt scs8hd_nand2_4 A B Y vgnd vpwr
.ends

* Black-box entry subcircuit for scs8hd_nor3_4 abstract view
.subckt scs8hd_nor3_4 A B C Y vgnd vpwr
.ends

.subckt cby_3__1_ address[0] address[1] address[2] address[3] address[4] address[5]
+ address[6] chany_bottom_in[0] chany_bottom_in[1] chany_bottom_in[2] chany_bottom_in[3]
+ chany_bottom_in[4] chany_bottom_in[5] chany_bottom_in[6] chany_bottom_in[7] chany_bottom_in[8]
+ chany_bottom_out[0] chany_bottom_out[1] chany_bottom_out[2] chany_bottom_out[3]
+ chany_bottom_out[4] chany_bottom_out[5] chany_bottom_out[6] chany_bottom_out[7]
+ chany_bottom_out[8] chany_top_in[0] chany_top_in[1] chany_top_in[2] chany_top_in[3]
+ chany_top_in[4] chany_top_in[5] chany_top_in[6] chany_top_in[7] chany_top_in[8]
+ chany_top_out[0] chany_top_out[1] chany_top_out[2] chany_top_out[3] chany_top_out[4]
+ chany_top_out[5] chany_top_out[6] chany_top_out[7] chany_top_out[8] data_in enable
+ left_grid_pin_1_ left_grid_pin_5_ left_grid_pin_9_ right_grid_pin_0_ right_grid_pin_10_
+ right_grid_pin_12_ right_grid_pin_14_ right_grid_pin_2_ right_grid_pin_4_ right_grid_pin_6_
+ right_grid_pin_8_ vpwr vgnd
XFILLER_26_52 vgnd vpwr scs8hd_decap_4
XFILLER_42_62 vpwr vgnd scs8hd_fill_2
XANTENNA_mux_left_ipin_5.mux_l2_in_0_.TGATE_0_.scs8hd_ebufn_2_TEB mem_left_ipin_5.LATCH_3_.latch/Q
+ vgnd vpwr scs8hd_diode_2
XFILLER_63_39 vgnd vpwr scs8hd_decap_12
XFILLER_6_129 vgnd vpwr scs8hd_decap_12
XFILLER_12_32 vgnd vpwr scs8hd_decap_3
XFILLER_12_76 vgnd vpwr scs8hd_decap_3
XFILLER_53_83 vgnd vpwr scs8hd_decap_3
XANTENNA__124__A _140_/A vgnd vpwr scs8hd_diode_2
Xmux_right_ipin_0.mux_l1_in_0_.TGATE_2_.scs8hd_ebufn_2 mux_right_ipin_0.INVTX1_2_.scs8hd_inv_1/Y
+ mem_right_ipin_0.LATCH_2_.latch/Q mux_right_ipin_0.mux_l1_in_0_.TGATE_1_.scs8hd_ebufn_2/Z
+ vgnd vpwr scs8hd_ebufn_2
Xmux_left_ipin_6.mux_l2_in_0_.TGATE_1_.scs8hd_ebufn_2 mux_left_ipin_6.mux_l1_in_1_.TGATE_1_.scs8hd_ebufn_2/Z
+ mem_left_ipin_6.LATCH_4_.latch/Q mux_left_ipin_6.tap_buf4_0_.scs8hd_inv_1/A vgnd
+ vpwr scs8hd_ebufn_2
XANTENNA_mux_left_ipin_0.mux_l2_in_0_.TGATE_0_.scs8hd_ebufn_2_TEB mem_left_ipin_0.LATCH_3_.latch/Q
+ vgnd vpwr scs8hd_diode_2
XANTENNA_mem_left_ipin_0.LATCH_1_.latch_SLEEPB _169_/Y vgnd vpwr scs8hd_diode_2
XANTENNA__209__A chany_bottom_in[0] vgnd vpwr scs8hd_diode_2
X_200_ chany_top_in[0] chany_bottom_out[0] vgnd vpwr scs8hd_buf_2
XANTENNA_mux_right_ipin_1.mux_l2_in_0_.TGATE_1_.scs8hd_ebufn_2_TEB _159_/Y vgnd vpwr
+ scs8hd_diode_2
X_131_ _139_/A _135_/B _131_/Y vgnd vpwr scs8hd_nor2_4
XANTENNA__110__C address[3] vgnd vpwr scs8hd_diode_2
XFILLER_9_99 vpwr vgnd scs8hd_fill_2
XFILLER_9_77 vpwr vgnd scs8hd_fill_2
Xmux_left_ipin_4.INVTX1_1_.scs8hd_inv_1 chany_top_in[3] mux_left_ipin_4.INVTX1_1_.scs8hd_inv_1/Y
+ vgnd vpwr scs8hd_inv_1
XANTENNA__119__A _137_/A vgnd vpwr scs8hd_diode_2
XFILLER_50_3 vgnd vpwr scs8hd_decap_12
XFILLER_62_109 vgnd vpwr scs8hd_fill_1
X_114_ _140_/A _116_/B _114_/Y vgnd vpwr scs8hd_nor2_4
XFILLER_59_93 vpwr vgnd scs8hd_fill_2
XANTENNA__121__B _121_/B vgnd vpwr scs8hd_diode_2
XANTENNA_mux_left_ipin_4.mux_l1_in_1_.TGATE_2_.scs8hd_ebufn_2_A mux_left_ipin_4.INVTX1_5_.scs8hd_inv_1/Y
+ vgnd vpwr scs8hd_diode_2
XFILLER_38_128 vgnd vpwr scs8hd_decap_12
XFILLER_61_131 vgnd vpwr scs8hd_decap_12
Xmux_left_ipin_5.INVTX1_5_.scs8hd_inv_1 chany_top_in[5] mux_left_ipin_5.INVTX1_5_.scs8hd_inv_1/Y
+ vgnd vpwr scs8hd_inv_1
XFILLER_39_19 vpwr vgnd scs8hd_fill_2
XFILLER_29_106 vgnd vpwr scs8hd_decap_3
Xmem_right_ipin_2.LATCH_1_.latch data_in _161_/A _157_/Y vgnd vpwr scs8hd_lpflow_inputisolatch_1
XFILLER_20_32 vgnd vpwr scs8hd_fill_1
XFILLER_29_41 vgnd vpwr scs8hd_fill_1
XFILLER_45_95 vgnd vpwr scs8hd_fill_1
Xmux_left_ipin_2.mux_l1_in_1_.TGATE_1_.scs8hd_ebufn_2 mux_left_ipin_2.INVTX1_4_.scs8hd_inv_1/Y
+ mem_left_ipin_2.LATCH_1_.latch/Q mux_left_ipin_2.mux_l1_in_1_.TGATE_2_.scs8hd_ebufn_2/Z
+ vgnd vpwr scs8hd_ebufn_2
XANTENNA__116__B _116_/B vgnd vpwr scs8hd_diode_2
XANTENNA__132__A _140_/A vgnd vpwr scs8hd_diode_2
XFILLER_13_3 vgnd vpwr scs8hd_decap_12
XFILLER_40_145 vgnd vpwr scs8hd_fill_1
XFILLER_31_53 vpwr vgnd scs8hd_fill_2
XFILLER_31_75 vpwr vgnd scs8hd_fill_2
XFILLER_56_61 vpwr vgnd scs8hd_fill_2
XANTENNA__127__A _143_/A vgnd vpwr scs8hd_diode_2
XPHY_170 vgnd vpwr scs8hd_tapvpwrvgnd_1
XFILLER_31_123 vgnd vpwr scs8hd_decap_12
XPHY_181 vgnd vpwr scs8hd_tapvpwrvgnd_1
XPHY_192 vgnd vpwr scs8hd_tapvpwrvgnd_1
XANTENNA_mux_left_ipin_0.mux_l1_in_1_.TGATE_0_.scs8hd_ebufn_2_A mux_left_ipin_0.INVTX1_3_.scs8hd_inv_1/Y
+ vgnd vpwr scs8hd_diode_2
XFILLER_13_123 vgnd vpwr scs8hd_decap_12
XFILLER_26_97 vgnd vpwr scs8hd_decap_4
XFILLER_42_85 vgnd vpwr scs8hd_fill_1
XFILLER_42_41 vpwr vgnd scs8hd_fill_2
XFILLER_3_57 vpwr vgnd scs8hd_fill_2
XANTENNA_mem_left_ipin_7.LATCH_0_.latch_SLEEPB _144_/Y vgnd vpwr scs8hd_diode_2
Xmux_left_ipin_6.mux_l1_in_1_.TGATE_2_.scs8hd_ebufn_2 mux_left_ipin_6.INVTX1_5_.scs8hd_inv_1/Y
+ mem_left_ipin_6.LATCH_2_.latch/Q mux_left_ipin_6.mux_l1_in_1_.TGATE_1_.scs8hd_ebufn_2/Z
+ vgnd vpwr scs8hd_ebufn_2
XANTENNA_mux_left_ipin_5.mux_l2_in_0_.TGATE_2_.scs8hd_ebufn_2_A _186_/HI vgnd vpwr
+ scs8hd_diode_2
XFILLER_10_104 vgnd vpwr scs8hd_decap_8
XFILLER_10_115 vgnd vpwr scs8hd_decap_12
XFILLER_12_55 vpwr vgnd scs8hd_fill_2
XFILLER_37_52 vpwr vgnd scs8hd_fill_2
XFILLER_53_95 vpwr vgnd scs8hd_fill_2
XFILLER_53_62 vpwr vgnd scs8hd_fill_2
XFILLER_53_51 vpwr vgnd scs8hd_fill_2
XFILLER_5_130 vgnd vpwr scs8hd_decap_12
XANTENNA__124__B _128_/B vgnd vpwr scs8hd_diode_2
XANTENNA__140__A _140_/A vgnd vpwr scs8hd_diode_2
XFILLER_59_126 vpwr vgnd scs8hd_fill_2
XFILLER_59_115 vgnd vpwr scs8hd_decap_6
XANTENNA_mux_left_ipin_1.mux_l1_in_0_.TGATE_2_.scs8hd_ebufn_2_A mux_left_ipin_1.INVTX1_2_.scs8hd_inv_1/Y
+ vgnd vpwr scs8hd_diode_2
Xmem_left_ipin_1.LATCH_5_.latch data_in mem_left_ipin_1.LATCH_5_.latch/Q _173_/Y vgnd
+ vpwr scs8hd_lpflow_inputisolatch_1
Xmux_left_ipin_4.mux_l1_in_0_.TGATE_0_.scs8hd_ebufn_2 mux_left_ipin_4.INVTX1_0_.scs8hd_inv_1/Y
+ mem_left_ipin_4.LATCH_0_.latch/Q mux_left_ipin_4.mux_l1_in_0_.TGATE_0_.scs8hd_ebufn_2/Z
+ vgnd vpwr scs8hd_ebufn_2
X_130_ _129_/X _135_/B vgnd vpwr scs8hd_buf_1
XFILLER_48_84 vgnd vpwr scs8hd_decap_8
XANTENNA__110__D _109_/Y vgnd vpwr scs8hd_diode_2
XFILLER_64_94 vgnd vpwr scs8hd_decap_12
XFILLER_0_58 vpwr vgnd scs8hd_fill_2
XANTENNA__119__B address[4] vgnd vpwr scs8hd_diode_2
XANTENNA__135__A _143_/A vgnd vpwr scs8hd_diode_2
XFILLER_43_3 vgnd vpwr scs8hd_decap_12
XFILLER_56_107 vgnd vpwr scs8hd_decap_4
XFILLER_47_118 vpwr vgnd scs8hd_fill_2
XANTENNA_mux_left_ipin_1.INVTX1_4_.scs8hd_inv_1_A chany_bottom_in[5] vgnd vpwr scs8hd_diode_2
XANTENNA_mem_right_ipin_0.LATCH_5_.latch_D data_in vgnd vpwr scs8hd_diode_2
Xmux_left_ipin_1.mux_l2_in_0_.TGATE_0_.scs8hd_ebufn_2 mux_left_ipin_1.mux_l2_in_0_.TGATE_0_.scs8hd_ebufn_2/A
+ mem_left_ipin_1.LATCH_3_.latch/Q mux_left_ipin_1.tap_buf4_0_.scs8hd_inv_1/A vgnd
+ vpwr scs8hd_ebufn_2
XFILLER_18_32 vgnd vpwr scs8hd_decap_8
X_113_ _100_/B _140_/A vgnd vpwr scs8hd_buf_1
XFILLER_50_52 vgnd vpwr scs8hd_decap_4
XANTENNA_mem_right_ipin_2.LATCH_1_.latch_D data_in vgnd vpwr scs8hd_diode_2
XFILLER_61_143 vgnd vpwr scs8hd_decap_3
XANTENNA_mux_left_ipin_5.INVTX1_5_.scs8hd_inv_1_A chany_top_in[5] vgnd vpwr scs8hd_diode_2
XANTENNA_mux_left_ipin_1.mux_l2_in_0_.TGATE_0_.scs8hd_ebufn_2_A mux_left_ipin_1.mux_l2_in_0_.TGATE_0_.scs8hd_ebufn_2/A
+ vgnd vpwr scs8hd_diode_2
XFILLER_52_121 vgnd vpwr scs8hd_decap_12
XANTENNA_mem_left_ipin_5.LATCH_1_.latch_SLEEPB _127_/Y vgnd vpwr scs8hd_diode_2
Xmux_left_ipin_2.INVTX1_1_.scs8hd_inv_1 chany_top_in[1] mux_left_ipin_2.INVTX1_1_.scs8hd_inv_1/Y
+ vgnd vpwr scs8hd_inv_1
XANTENNA_mux_right_ipin_0.INVTX1_2_.scs8hd_inv_1_A chany_bottom_in[7] vgnd vpwr scs8hd_diode_2
XFILLER_29_86 vpwr vgnd scs8hd_fill_2
XFILLER_43_143 vgnd vpwr scs8hd_decap_3
XFILLER_43_121 vgnd vpwr scs8hd_fill_1
XFILLER_61_95 vgnd vpwr scs8hd_decap_4
XFILLER_61_62 vgnd vpwr scs8hd_decap_3
XFILLER_61_51 vgnd vpwr scs8hd_decap_4
XANTENNA__132__B _135_/B vgnd vpwr scs8hd_diode_2
XFILLER_34_121 vpwr vgnd scs8hd_fill_2
XFILLER_34_132 vgnd vpwr scs8hd_decap_12
Xmux_left_ipin_3.INVTX1_5_.scs8hd_inv_1 chany_top_in[7] mux_left_ipin_3.INVTX1_5_.scs8hd_inv_1/Y
+ vgnd vpwr scs8hd_inv_1
XFILLER_25_121 vgnd vpwr scs8hd_fill_1
XFILLER_40_102 vpwr vgnd scs8hd_fill_2
Xmux_left_ipin_5.mux_l2_in_0_.TGATE_1_.scs8hd_ebufn_2 mux_left_ipin_5.mux_l1_in_1_.TGATE_0_.scs8hd_ebufn_2/Z
+ mem_left_ipin_5.LATCH_4_.latch/Q mux_left_ipin_5.tap_buf4_0_.scs8hd_inv_1/A vgnd
+ vpwr scs8hd_ebufn_2
XANTENNA__127__B _128_/B vgnd vpwr scs8hd_diode_2
XPHY_160 vgnd vpwr scs8hd_tapvpwrvgnd_1
XPHY_171 vgnd vpwr scs8hd_tapvpwrvgnd_1
XPHY_182 vgnd vpwr scs8hd_tapvpwrvgnd_1
XPHY_193 vgnd vpwr scs8hd_tapvpwrvgnd_1
XFILLER_31_135 vgnd vpwr scs8hd_decap_8
XANTENNA__143__A _143_/A vgnd vpwr scs8hd_diode_2
XANTENNA_mem_left_ipin_0.LATCH_2_.latch_D data_in vgnd vpwr scs8hd_diode_2
XFILLER_26_32 vgnd vpwr scs8hd_decap_4
XANTENNA_mem_left_ipin_1.LATCH_0_.latch_D data_in vgnd vpwr scs8hd_diode_2
XFILLER_13_113 vgnd vpwr scs8hd_decap_8
XFILLER_13_135 vgnd vpwr scs8hd_decap_8
XFILLER_26_65 vgnd vpwr scs8hd_decap_4
XFILLER_42_75 vpwr vgnd scs8hd_fill_2
XFILLER_3_36 vpwr vgnd scs8hd_fill_2
XANTENNA__138__A _137_/X vgnd vpwr scs8hd_diode_2
Xmem_left_ipin_2.LATCH_1_.latch data_in mem_left_ipin_2.LATCH_1_.latch/Q _085_/Y vgnd
+ vpwr scs8hd_lpflow_inputisolatch_1
XANTENNA_mux_left_ipin_4.tap_buf4_0_.scs8hd_inv_1_A mux_left_ipin_4.tap_buf4_0_.scs8hd_inv_1/A
+ vgnd vpwr scs8hd_diode_2
XFILLER_10_127 vgnd vpwr scs8hd_decap_12
XANTENNA_mux_left_ipin_3.mux_l1_in_0_.TGATE_2_.scs8hd_ebufn_2_TEB mem_left_ipin_3.LATCH_2_.latch/Q
+ vgnd vpwr scs8hd_diode_2
XANTENNA_mem_left_ipin_3.LATCH_2_.latch_SLEEPB _103_/Y vgnd vpwr scs8hd_diode_2
XFILLER_37_20 vpwr vgnd scs8hd_fill_2
XFILLER_37_97 vgnd vpwr scs8hd_decap_3
XFILLER_5_142 vgnd vpwr scs8hd_decap_4
Xmem_left_ipin_4.LATCH_4_.latch data_in mem_left_ipin_4.LATCH_4_.latch/Q _114_/Y vgnd
+ vpwr scs8hd_lpflow_inputisolatch_1
XANTENNA__140__B _144_/B vgnd vpwr scs8hd_diode_2
XANTENNA_mux_right_ipin_0.tap_buf4_0_.scs8hd_inv_1_A mux_right_ipin_0.tap_buf4_0_.scs8hd_inv_1/A
+ vgnd vpwr scs8hd_diode_2
XFILLER_59_138 vpwr vgnd scs8hd_fill_2
XFILLER_4_90 vpwr vgnd scs8hd_fill_2
Xmux_left_ipin_1.mux_l1_in_1_.TGATE_1_.scs8hd_ebufn_2 mux_left_ipin_1.INVTX1_4_.scs8hd_inv_1/Y
+ mem_left_ipin_1.LATCH_1_.latch/Q mux_left_ipin_1.mux_l1_in_1_.TGATE_1_.scs8hd_ebufn_2/Z
+ vgnd vpwr scs8hd_ebufn_2
XFILLER_23_55 vgnd vpwr scs8hd_decap_4
XFILLER_23_77 vpwr vgnd scs8hd_fill_2
XFILLER_3_3 vgnd vpwr scs8hd_decap_12
XFILLER_48_52 vpwr vgnd scs8hd_fill_2
XFILLER_0_15 vgnd vpwr scs8hd_decap_12
XFILLER_9_35 vgnd vpwr scs8hd_fill_1
XFILLER_0_37 vpwr vgnd scs8hd_fill_2
XANTENNA__119__C _094_/Y vgnd vpwr scs8hd_diode_2
XANTENNA__135__B _135_/B vgnd vpwr scs8hd_diode_2
XANTENNA_mux_left_ipin_6.mux_l1_in_1_.TGATE_2_.scs8hd_ebufn_2_TEB mem_left_ipin_6.LATCH_2_.latch/Q
+ vgnd vpwr scs8hd_diode_2
XFILLER_9_57 vpwr vgnd scs8hd_fill_2
X_189_ _189_/HI _189_/LO vgnd vpwr scs8hd_conb_1
XANTENNA_mux_left_ipin_3.INVTX1_2_.scs8hd_inv_1_A chany_bottom_in[3] vgnd vpwr scs8hd_diode_2
XANTENNA__151__A _070_/X vgnd vpwr scs8hd_diode_2
XANTENNA_mem_left_ipin_4.LATCH_4_.latch_D data_in vgnd vpwr scs8hd_diode_2
XFILLER_36_3 vgnd vpwr scs8hd_decap_12
XANTENNA_mem_left_ipin_5.LATCH_2_.latch_D data_in vgnd vpwr scs8hd_diode_2
XANTENNA_mux_left_ipin_7.INVTX1_3_.scs8hd_inv_1_A chany_top_in[6] vgnd vpwr scs8hd_diode_2
XANTENNA_mem_left_ipin_6.LATCH_0_.latch_D data_in vgnd vpwr scs8hd_diode_2
XFILLER_18_44 vpwr vgnd scs8hd_fill_2
XFILLER_55_130 vpwr vgnd scs8hd_fill_2
XFILLER_34_32 vgnd vpwr scs8hd_decap_4
XFILLER_50_75 vgnd vpwr scs8hd_decap_4
X_112_ _139_/A _116_/B _112_/Y vgnd vpwr scs8hd_nor2_4
XFILLER_59_73 vgnd vpwr scs8hd_decap_3
XFILLER_59_40 vpwr vgnd scs8hd_fill_2
Xmux_right_ipin_0.INVTX1_2_.scs8hd_inv_1 chany_bottom_in[7] mux_right_ipin_0.INVTX1_2_.scs8hd_inv_1/Y
+ vgnd vpwr scs8hd_inv_1
XANTENNA_mux_right_ipin_2.INVTX1_0_.scs8hd_inv_1_A chany_bottom_in[1] vgnd vpwr scs8hd_diode_2
XANTENNA_mux_left_ipin_5.mux_l1_in_1_.TGATE_2_.scs8hd_ebufn_2_A mux_left_ipin_5.INVTX1_5_.scs8hd_inv_1/Y
+ vgnd vpwr scs8hd_diode_2
XANTENNA__146__A _145_/X vgnd vpwr scs8hd_diode_2
Xmux_left_ipin_1.tap_buf4_0_.scs8hd_inv_1 mux_left_ipin_1.tap_buf4_0_.scs8hd_inv_1/A
+ right_grid_pin_2_ vgnd vpwr scs8hd_inv_1
XFILLER_52_133 vgnd vpwr scs8hd_decap_12
XFILLER_37_130 vgnd vpwr scs8hd_decap_4
XFILLER_37_141 vgnd vpwr scs8hd_decap_4
XANTENNA_mux_left_ipin_1.mux_l1_in_1_.TGATE_2_.scs8hd_ebufn_2_TEB mem_left_ipin_1.LATCH_2_.latch/Q
+ vgnd vpwr scs8hd_diode_2
XFILLER_20_67 vgnd vpwr scs8hd_decap_4
XFILLER_43_100 vpwr vgnd scs8hd_fill_2
XFILLER_29_65 vpwr vgnd scs8hd_fill_2
Xmux_left_ipin_5.mux_l1_in_1_.TGATE_2_.scs8hd_ebufn_2 mux_left_ipin_5.INVTX1_5_.scs8hd_inv_1/Y
+ mem_left_ipin_5.LATCH_2_.latch/Q mux_left_ipin_5.mux_l1_in_1_.TGATE_0_.scs8hd_ebufn_2/Z
+ vgnd vpwr scs8hd_ebufn_2
XFILLER_45_53 vpwr vgnd scs8hd_fill_2
XFILLER_61_74 vpwr vgnd scs8hd_fill_2
XANTENNA_mem_left_ipin_1.LATCH_3_.latch_SLEEPB _175_/Y vgnd vpwr scs8hd_diode_2
XFILLER_34_144 vpwr vgnd scs8hd_fill_2
XANTENNA_mux_left_ipin_5.mux_l1_in_0_.TGATE_1_.scs8hd_ebufn_2_TEB mem_left_ipin_5.LATCH_1_.latch/Q
+ vgnd vpwr scs8hd_diode_2
XFILLER_40_125 vgnd vpwr scs8hd_decap_12
XFILLER_15_89 vpwr vgnd scs8hd_fill_2
XANTENNA_mem_right_ipin_1.LATCH_0_.latch_SLEEPB _156_/Y vgnd vpwr scs8hd_diode_2
XFILLER_31_22 vgnd vpwr scs8hd_decap_4
XFILLER_31_88 vgnd vpwr scs8hd_decap_6
Xmux_left_ipin_0.INVTX1_1_.scs8hd_inv_1 chany_top_in[0] mux_left_ipin_0.INVTX1_1_.scs8hd_inv_1/Y
+ vgnd vpwr scs8hd_inv_1
XFILLER_16_144 vpwr vgnd scs8hd_fill_2
XPHY_150 vgnd vpwr scs8hd_tapvpwrvgnd_1
XPHY_161 vgnd vpwr scs8hd_tapvpwrvgnd_1
XPHY_172 vgnd vpwr scs8hd_tapvpwrvgnd_1
XPHY_183 vgnd vpwr scs8hd_tapvpwrvgnd_1
XPHY_194 vgnd vpwr scs8hd_tapvpwrvgnd_1
XANTENNA__143__B _144_/B vgnd vpwr scs8hd_diode_2
Xmux_left_ipin_3.mux_l1_in_0_.TGATE_0_.scs8hd_ebufn_2 mux_left_ipin_3.INVTX1_0_.scs8hd_inv_1/Y
+ mem_left_ipin_3.LATCH_0_.latch/Q mux_left_ipin_3.mux_l2_in_0_.TGATE_0_.scs8hd_ebufn_2/A
+ vgnd vpwr scs8hd_ebufn_2
XFILLER_22_114 vgnd vpwr scs8hd_decap_3
XFILLER_7_90 vgnd vpwr scs8hd_decap_3
Xmem_left_ipin_5.LATCH_0_.latch data_in mem_left_ipin_5.LATCH_0_.latch/Q _128_/Y vgnd
+ vpwr scs8hd_lpflow_inputisolatch_1
XFILLER_42_32 vgnd vpwr scs8hd_decap_3
Xmux_left_ipin_1.INVTX1_5_.scs8hd_inv_1 chany_top_in[5] mux_left_ipin_1.INVTX1_5_.scs8hd_inv_1/Y
+ vgnd vpwr scs8hd_inv_1
XANTENNA_mux_left_ipin_1.mux_l1_in_1_.TGATE_0_.scs8hd_ebufn_2_A mux_left_ipin_1.INVTX1_3_.scs8hd_inv_1/Y
+ vgnd vpwr scs8hd_diode_2
Xmem_right_ipin_0.LATCH_4_.latch data_in mem_right_ipin_0.LATCH_4_.latch/Q _150_/Y
+ vgnd vpwr scs8hd_lpflow_inputisolatch_1
XFILLER_3_15 vgnd vpwr scs8hd_decap_12
XANTENNA_mux_left_ipin_0.mux_l1_in_0_.TGATE_1_.scs8hd_ebufn_2_TEB mem_left_ipin_0.LATCH_1_.latch/Q
+ vgnd vpwr scs8hd_diode_2
XANTENNA__154__A _144_/A vgnd vpwr scs8hd_diode_2
Xmux_left_ipin_0.mux_l2_in_0_.TGATE_0_.scs8hd_ebufn_2 mux_left_ipin_0.mux_l2_in_0_.TGATE_0_.scs8hd_ebufn_2/A
+ mem_left_ipin_0.LATCH_3_.latch/Q mux_left_ipin_0.tap_buf4_0_.scs8hd_inv_1/A vgnd
+ vpwr scs8hd_ebufn_2
Xmem_left_ipin_7.LATCH_3_.latch data_in mem_left_ipin_7.LATCH_3_.latch/Q _141_/Y vgnd
+ vpwr scs8hd_lpflow_inputisolatch_1
XFILLER_10_139 vgnd vpwr scs8hd_decap_6
XANTENNA_mux_left_ipin_6.mux_l2_in_0_.TGATE_2_.scs8hd_ebufn_2_A _187_/HI vgnd vpwr
+ scs8hd_diode_2
XFILLER_53_31 vgnd vpwr scs8hd_fill_1
Xmux_left_ipin_7.INVTX1_2_.scs8hd_inv_1 chany_bottom_in[6] mux_left_ipin_7.INVTX1_2_.scs8hd_inv_1/Y
+ vgnd vpwr scs8hd_inv_1
XANTENNA__149__A _139_/A vgnd vpwr scs8hd_diode_2
Xmux_left_ipin_7.mux_l1_in_0_.TGATE_1_.scs8hd_ebufn_2 mux_left_ipin_7.INVTX1_1_.scs8hd_inv_1/Y
+ mem_left_ipin_7.LATCH_1_.latch/Q mux_left_ipin_7.mux_l1_in_0_.TGATE_1_.scs8hd_ebufn_2/Z
+ vgnd vpwr scs8hd_ebufn_2
XANTENNA_mux_left_ipin_2.mux_l1_in_0_.TGATE_2_.scs8hd_ebufn_2_A mux_left_ipin_2.INVTX1_2_.scs8hd_inv_1/Y
+ vgnd vpwr scs8hd_diode_2
XANTENNA_mux_left_ipin_3.mux_l1_in_1_.TGATE_1_.scs8hd_ebufn_2_TEB mem_left_ipin_3.LATCH_1_.latch/Q
+ vgnd vpwr scs8hd_diode_2
XANTENNA_mux_left_ipin_5.INVTX1_0_.scs8hd_inv_1_A chany_bottom_in[0] vgnd vpwr scs8hd_diode_2
XFILLER_2_102 vpwr vgnd scs8hd_fill_2
XFILLER_48_97 vgnd vpwr scs8hd_fill_1
XFILLER_0_27 vgnd vpwr scs8hd_decap_4
XANTENNA_mux_right_ipin_0.mux_l1_in_0_.TGATE_2_.scs8hd_ebufn_2_A mux_right_ipin_0.INVTX1_2_.scs8hd_inv_1/Y
+ vgnd vpwr scs8hd_diode_2
XFILLER_64_63 vgnd vpwr scs8hd_decap_12
X_188_ _188_/HI _188_/LO vgnd vpwr scs8hd_conb_1
XANTENNA__151__B _149_/B vgnd vpwr scs8hd_diode_2
XFILLER_29_3 vgnd vpwr scs8hd_decap_12
XANTENNA_mux_left_ipin_7.mux_l1_in_0_.TGATE_0_.scs8hd_ebufn_2_TEB mem_left_ipin_7.LATCH_0_.latch/Q
+ vgnd vpwr scs8hd_diode_2
Xmux_left_ipin_4.mux_l2_in_0_.TGATE_1_.scs8hd_ebufn_2 mux_left_ipin_4.mux_l1_in_1_.TGATE_0_.scs8hd_ebufn_2/Z
+ mem_left_ipin_4.LATCH_4_.latch/Q mux_left_ipin_4.tap_buf4_0_.scs8hd_inv_1/A vgnd
+ vpwr scs8hd_ebufn_2
XFILLER_34_88 vpwr vgnd scs8hd_fill_2
XFILLER_50_32 vgnd vpwr scs8hd_decap_4
X_111_ _110_/X _116_/B vgnd vpwr scs8hd_buf_1
XFILLER_38_109 vgnd vpwr scs8hd_decap_8
XANTENNA__162__A _162_/A vgnd vpwr scs8hd_diode_2
XANTENNA_mux_left_ipin_2.mux_l2_in_0_.TGATE_0_.scs8hd_ebufn_2_A mux_left_ipin_2.mux_l1_in_0_.TGATE_0_.scs8hd_ebufn_2/Z
+ vgnd vpwr scs8hd_diode_2
XFILLER_52_145 vgnd vpwr scs8hd_fill_1
XFILLER_1_92 vpwr vgnd scs8hd_fill_2
XANTENNA__072__A address[5] vgnd vpwr scs8hd_diode_2
XFILLER_20_46 vgnd vpwr scs8hd_decap_4
XFILLER_45_65 vgnd vpwr scs8hd_decap_3
XFILLER_43_123 vgnd vpwr scs8hd_decap_12
XANTENNA_mux_right_ipin_0.mux_l2_in_0_.TGATE_0_.scs8hd_ebufn_2_A mux_right_ipin_0.mux_l1_in_0_.TGATE_1_.scs8hd_ebufn_2/Z
+ vgnd vpwr scs8hd_diode_2
XFILLER_29_55 vgnd vpwr scs8hd_fill_1
XFILLER_45_98 vgnd vpwr scs8hd_decap_3
XFILLER_45_87 vpwr vgnd scs8hd_fill_2
XFILLER_6_15 vgnd vpwr scs8hd_decap_12
XANTENNA_mux_left_ipin_2.mux_l1_in_0_.TGATE_0_.scs8hd_ebufn_2_TEB mem_left_ipin_2.LATCH_0_.latch/Q
+ vgnd vpwr scs8hd_diode_2
XANTENNA__157__A _158_/A vgnd vpwr scs8hd_diode_2
Xmem_right_ipin_1.LATCH_0_.latch data_in _160_/A _156_/Y vgnd vpwr scs8hd_lpflow_inputisolatch_1
XFILLER_40_137 vgnd vpwr scs8hd_decap_8
XFILLER_25_134 vgnd vpwr scs8hd_decap_12
XANTENNA__067__A address[1] vgnd vpwr scs8hd_diode_2
XFILLER_56_97 vgnd vpwr scs8hd_fill_1
XFILLER_56_86 vgnd vpwr scs8hd_decap_6
XFILLER_56_42 vpwr vgnd scs8hd_fill_2
XPHY_151 vgnd vpwr scs8hd_tapvpwrvgnd_1
XPHY_140 vgnd vpwr scs8hd_tapvpwrvgnd_1
XPHY_162 vgnd vpwr scs8hd_tapvpwrvgnd_1
XPHY_173 vgnd vpwr scs8hd_tapvpwrvgnd_1
XPHY_184 vgnd vpwr scs8hd_tapvpwrvgnd_1
XPHY_195 vgnd vpwr scs8hd_tapvpwrvgnd_1
Xmux_left_ipin_0.mux_l1_in_1_.TGATE_1_.scs8hd_ebufn_2 mux_left_ipin_0.INVTX1_4_.scs8hd_inv_1/Y
+ mem_left_ipin_0.LATCH_1_.latch/Q mux_left_ipin_0.mux_l2_in_0_.TGATE_1_.scs8hd_ebufn_2/A
+ vgnd vpwr scs8hd_ebufn_2
XFILLER_11_3 vgnd vpwr scs8hd_decap_12
XANTENNA_mux_left_ipin_5.mux_l1_in_1_.TGATE_0_.scs8hd_ebufn_2_TEB mem_left_ipin_5.LATCH_0_.latch/Q
+ vgnd vpwr scs8hd_diode_2
XFILLER_22_126 vgnd vpwr scs8hd_decap_12
XFILLER_26_23 vgnd vpwr scs8hd_decap_8
XFILLER_26_89 vgnd vpwr scs8hd_decap_3
XFILLER_42_88 vpwr vgnd scs8hd_fill_2
XFILLER_3_27 vgnd vpwr scs8hd_decap_6
XFILLER_59_3 vgnd vpwr scs8hd_decap_12
XANTENNA_mem_left_ipin_6.LATCH_3_.latch_SLEEPB _133_/Y vgnd vpwr scs8hd_diode_2
XANTENNA__154__B _149_/B vgnd vpwr scs8hd_diode_2
XANTENNA__170__A _087_/X vgnd vpwr scs8hd_diode_2
XANTENNA__080__A _067_/Y vgnd vpwr scs8hd_diode_2
XFILLER_37_33 vpwr vgnd scs8hd_fill_2
XANTENNA_mux_left_ipin_0.mux_l1_in_1_.TGATE_0_.scs8hd_ebufn_2_TEB mem_left_ipin_0.LATCH_0_.latch/Q
+ vgnd vpwr scs8hd_diode_2
XFILLER_37_77 vpwr vgnd scs8hd_fill_2
XANTENNA__149__B _149_/B vgnd vpwr scs8hd_diode_2
XANTENNA__165__A _091_/X vgnd vpwr scs8hd_diode_2
Xmux_left_ipin_4.mux_l1_in_1_.TGATE_2_.scs8hd_ebufn_2 mux_left_ipin_4.INVTX1_5_.scs8hd_inv_1/Y
+ mem_left_ipin_4.LATCH_2_.latch/Q mux_left_ipin_4.mux_l1_in_1_.TGATE_0_.scs8hd_ebufn_2/Z
+ vgnd vpwr scs8hd_ebufn_2
XFILLER_23_35 vgnd vpwr scs8hd_fill_1
XANTENNA__075__A _075_/A vgnd vpwr scs8hd_diode_2
XFILLER_48_32 vgnd vpwr scs8hd_decap_4
XFILLER_48_65 vpwr vgnd scs8hd_fill_2
XFILLER_9_15 vgnd vpwr scs8hd_decap_12
X_187_ _187_/HI _187_/LO vgnd vpwr scs8hd_conb_1
Xmem_left_ipin_0.LATCH_4_.latch data_in mem_left_ipin_0.LATCH_4_.latch/Q _166_/Y vgnd
+ vpwr scs8hd_lpflow_inputisolatch_1
Xmux_left_ipin_5.INVTX1_2_.scs8hd_inv_1 chany_bottom_in[4] mux_left_ipin_5.INVTX1_2_.scs8hd_inv_1/Y
+ vgnd vpwr scs8hd_inv_1
XFILLER_55_121 vgnd vpwr scs8hd_fill_1
X_110_ _137_/A address[4] address[3] _109_/Y _110_/X vgnd vpwr scs8hd_or4_4
XFILLER_34_45 vgnd vpwr scs8hd_decap_12
XFILLER_34_67 vpwr vgnd scs8hd_fill_2
XFILLER_59_97 vpwr vgnd scs8hd_fill_2
XFILLER_59_53 vpwr vgnd scs8hd_fill_2
Xmux_left_ipin_2.mux_l1_in_0_.TGATE_0_.scs8hd_ebufn_2 mux_left_ipin_2.INVTX1_0_.scs8hd_inv_1/Y
+ mem_left_ipin_2.LATCH_0_.latch/Q mux_left_ipin_2.mux_l1_in_0_.TGATE_0_.scs8hd_ebufn_2/Z
+ vgnd vpwr scs8hd_ebufn_2
XANTENNA_mux_left_ipin_6.mux_l1_in_1_.TGATE_2_.scs8hd_ebufn_2_A mux_left_ipin_6.INVTX1_5_.scs8hd_inv_1/Y
+ vgnd vpwr scs8hd_diode_2
XFILLER_41_3 vgnd vpwr scs8hd_decap_12
XANTENNA__072__B address[6] vgnd vpwr scs8hd_diode_2
XANTENNA_mem_left_ipin_4.LATCH_4_.latch_SLEEPB _114_/Y vgnd vpwr scs8hd_diode_2
XANTENNA_mux_right_ipin_0.mux_l1_in_0_.TGATE_0_.scs8hd_ebufn_2_TEB mem_right_ipin_0.LATCH_0_.latch/Q
+ vgnd vpwr scs8hd_diode_2
XFILLER_29_23 vpwr vgnd scs8hd_fill_2
XFILLER_29_34 vgnd vpwr scs8hd_decap_4
XFILLER_43_135 vgnd vpwr scs8hd_decap_8
XFILLER_28_121 vpwr vgnd scs8hd_fill_2
XFILLER_6_27 vgnd vpwr scs8hd_decap_4
XFILLER_10_91 vgnd vpwr scs8hd_fill_1
XFILLER_19_143 vgnd vpwr scs8hd_decap_3
XANTENNA__157__B _158_/B vgnd vpwr scs8hd_diode_2
XANTENNA__173__A _091_/X vgnd vpwr scs8hd_diode_2
XFILLER_25_113 vpwr vgnd scs8hd_fill_2
XFILLER_15_36 vgnd vpwr scs8hd_decap_3
XFILLER_15_58 vgnd vpwr scs8hd_decap_3
XANTENNA__083__A address[1] vgnd vpwr scs8hd_diode_2
XFILLER_31_57 vpwr vgnd scs8hd_fill_2
XFILLER_56_65 vgnd vpwr scs8hd_decap_3
XFILLER_56_32 vgnd vpwr scs8hd_decap_6
XPHY_152 vgnd vpwr scs8hd_tapvpwrvgnd_1
XPHY_141 vgnd vpwr scs8hd_tapvpwrvgnd_1
XPHY_130 vgnd vpwr scs8hd_tapvpwrvgnd_1
XFILLER_16_102 vgnd vpwr scs8hd_decap_8
XFILLER_16_113 vgnd vpwr scs8hd_decap_8
XFILLER_16_124 vgnd vpwr scs8hd_decap_12
XFILLER_31_105 vpwr vgnd scs8hd_fill_2
XPHY_163 vgnd vpwr scs8hd_tapvpwrvgnd_1
XPHY_174 vgnd vpwr scs8hd_tapvpwrvgnd_1
XPHY_185 vgnd vpwr scs8hd_tapvpwrvgnd_1
XPHY_196 vgnd vpwr scs8hd_tapvpwrvgnd_1
Xmux_left_ipin_6.mux_l1_in_0_.TGATE_1_.scs8hd_ebufn_2 mux_left_ipin_6.INVTX1_1_.scs8hd_inv_1/Y
+ mem_left_ipin_6.LATCH_1_.latch/Q mux_left_ipin_6.mux_l1_in_0_.TGATE_0_.scs8hd_ebufn_2/Z
+ vgnd vpwr scs8hd_ebufn_2
XANTENNA__168__A _081_/X vgnd vpwr scs8hd_diode_2
XFILLER_22_138 vgnd vpwr scs8hd_decap_8
XFILLER_13_105 vpwr vgnd scs8hd_fill_2
XANTENNA__078__A _077_/X vgnd vpwr scs8hd_diode_2
XANTENNA_mux_left_ipin_2.mux_l1_in_1_.TGATE_0_.scs8hd_ebufn_2_A mux_left_ipin_2.INVTX1_3_.scs8hd_inv_1/Y
+ vgnd vpwr scs8hd_diode_2
XANTENNA__170__B _164_/X vgnd vpwr scs8hd_diode_2
Xmux_left_ipin_3.mux_l2_in_0_.TGATE_1_.scs8hd_ebufn_2 mux_left_ipin_3.mux_l2_in_0_.TGATE_1_.scs8hd_ebufn_2/A
+ mem_left_ipin_3.LATCH_4_.latch/Q mux_left_ipin_3.tap_buf4_0_.scs8hd_inv_1/A vgnd
+ vpwr scs8hd_ebufn_2
XANTENNA_mux_right_ipin_0.mux_l1_in_1_.TGATE_0_.scs8hd_ebufn_2_A mux_right_ipin_0.INVTX1_3_.scs8hd_inv_1/Y
+ vgnd vpwr scs8hd_diode_2
XFILLER_12_15 vgnd vpwr scs8hd_decap_12
XFILLER_12_59 vgnd vpwr scs8hd_decap_3
XANTENNA_mux_left_ipin_7.mux_l2_in_0_.TGATE_2_.scs8hd_ebufn_2_A _188_/HI vgnd vpwr
+ scs8hd_diode_2
XANTENNA__080__B address[2] vgnd vpwr scs8hd_diode_2
XFILLER_37_56 vpwr vgnd scs8hd_fill_2
XFILLER_53_99 vpwr vgnd scs8hd_fill_2
XFILLER_53_66 vgnd vpwr scs8hd_decap_3
XFILLER_53_55 vgnd vpwr scs8hd_decap_4
XANTENNA_mem_left_ipin_2.LATCH_5_.latch_SLEEPB _179_/Y vgnd vpwr scs8hd_diode_2
XFILLER_5_112 vpwr vgnd scs8hd_fill_2
XFILLER_5_101 vpwr vgnd scs8hd_fill_2
Xmem_left_ipin_1.LATCH_0_.latch data_in mem_left_ipin_1.LATCH_0_.latch/Q _178_/Y vgnd
+ vpwr scs8hd_lpflow_inputisolatch_1
XANTENNA__165__B _164_/X vgnd vpwr scs8hd_diode_2
XANTENNA_mux_left_ipin_3.mux_l1_in_0_.TGATE_2_.scs8hd_ebufn_2_A mux_left_ipin_3.INVTX1_2_.scs8hd_inv_1/Y
+ vgnd vpwr scs8hd_diode_2
XANTENNA__075__B _074_/Y vgnd vpwr scs8hd_diode_2
XANTENNA_mux_left_ipin_0.INVTX1_3_.scs8hd_inv_1_A chany_top_in[4] vgnd vpwr scs8hd_diode_2
XANTENNA__091__A _091_/A vgnd vpwr scs8hd_diode_2
XFILLER_64_32 vgnd vpwr scs8hd_decap_12
Xmem_left_ipin_3.LATCH_3_.latch data_in mem_left_ipin_3.LATCH_3_.latch/Q _101_/Y vgnd
+ vpwr scs8hd_lpflow_inputisolatch_1
XFILLER_9_38 vpwr vgnd scs8hd_fill_2
XFILLER_9_27 vgnd vpwr scs8hd_decap_8
X_186_ _186_/HI _186_/LO vgnd vpwr scs8hd_conb_1
XANTENNA_mux_left_ipin_4.INVTX1_4_.scs8hd_inv_1_A chany_bottom_in[8] vgnd vpwr scs8hd_diode_2
XFILLER_49_141 vgnd vpwr scs8hd_decap_4
XFILLER_49_130 vpwr vgnd scs8hd_fill_2
XANTENNA__176__A _081_/X vgnd vpwr scs8hd_diode_2
Xmux_left_ipin_7.mux_l2_in_0_.TGATE_2_.scs8hd_ebufn_2 _188_/HI mem_left_ipin_7.LATCH_5_.latch/Q
+ mux_left_ipin_7.tap_buf4_0_.scs8hd_inv_1/A vgnd vpwr scs8hd_ebufn_2
XFILLER_18_69 vgnd vpwr scs8hd_decap_3
XFILLER_50_23 vgnd vpwr scs8hd_decap_8
XANTENNA__086__A address[1] vgnd vpwr scs8hd_diode_2
XFILLER_34_57 vgnd vpwr scs8hd_fill_1
XFILLER_1_3 vgnd vpwr scs8hd_decap_12
XFILLER_46_133 vgnd vpwr scs8hd_decap_12
XFILLER_46_122 vpwr vgnd scs8hd_fill_2
XFILLER_61_114 vpwr vgnd scs8hd_fill_2
XFILLER_61_103 vpwr vgnd scs8hd_fill_2
X_169_ _084_/X _164_/X _169_/Y vgnd vpwr scs8hd_nor2_4
XFILLER_34_3 vgnd vpwr scs8hd_decap_12
XANTENNA_mux_left_ipin_3.mux_l2_in_0_.TGATE_0_.scs8hd_ebufn_2_A mux_left_ipin_3.mux_l2_in_0_.TGATE_0_.scs8hd_ebufn_2/A
+ vgnd vpwr scs8hd_diode_2
XANTENNA_mem_left_ipin_0.LATCH_5_.latch_D data_in vgnd vpwr scs8hd_diode_2
XFILLER_20_15 vgnd vpwr scs8hd_decap_12
XFILLER_20_59 vpwr vgnd scs8hd_fill_2
XFILLER_43_114 vgnd vpwr scs8hd_decap_4
XANTENNA_mux_right_ipin_1.mux_l2_in_0_.TGATE_0_.scs8hd_ebufn_2_A mux_right_ipin_1.mux_l1_in_0_.TGATE_0_.scs8hd_ebufn_2/Z
+ vgnd vpwr scs8hd_diode_2
XANTENNA_mem_left_ipin_1.LATCH_3_.latch_D data_in vgnd vpwr scs8hd_diode_2
Xmux_left_ipin_3.INVTX1_2_.scs8hd_inv_1 chany_bottom_in[3] mux_left_ipin_3.INVTX1_2_.scs8hd_inv_1/Y
+ vgnd vpwr scs8hd_inv_1
XANTENNA_mem_left_ipin_2.LATCH_1_.latch_D data_in vgnd vpwr scs8hd_diode_2
XFILLER_19_100 vpwr vgnd scs8hd_fill_2
XFILLER_19_111 vpwr vgnd scs8hd_fill_2
XANTENNA__157__C _068_/Y vgnd vpwr scs8hd_diode_2
XFILLER_34_125 vpwr vgnd scs8hd_fill_2
XANTENNA__173__B _172_/X vgnd vpwr scs8hd_diode_2
XFILLER_40_106 vpwr vgnd scs8hd_fill_2
XFILLER_15_15 vgnd vpwr scs8hd_decap_12
XANTENNA_mux_left_ipin_3.mux_l2_in_0_.TGATE_2_.scs8hd_ebufn_2_TEB mem_left_ipin_3.LATCH_5_.latch/Q
+ vgnd vpwr scs8hd_diode_2
XANTENNA__083__B address[2] vgnd vpwr scs8hd_diode_2
XFILLER_31_36 vpwr vgnd scs8hd_fill_2
XANTENNA_mem_right_ipin_0.LATCH_3_.latch_SLEEPB _151_/Y vgnd vpwr scs8hd_diode_2
XPHY_120 vgnd vpwr scs8hd_decap_3
XPHY_142 vgnd vpwr scs8hd_tapvpwrvgnd_1
XPHY_131 vgnd vpwr scs8hd_tapvpwrvgnd_1
XPHY_153 vgnd vpwr scs8hd_tapvpwrvgnd_1
XPHY_164 vgnd vpwr scs8hd_tapvpwrvgnd_1
XFILLER_16_136 vgnd vpwr scs8hd_decap_8
XPHY_175 vgnd vpwr scs8hd_tapvpwrvgnd_1
XPHY_186 vgnd vpwr scs8hd_tapvpwrvgnd_1
XPHY_197 vgnd vpwr scs8hd_tapvpwrvgnd_1
XANTENNA__168__B _164_/X vgnd vpwr scs8hd_diode_2
XPHY_0 vgnd vpwr scs8hd_decap_3
Xmux_left_ipin_3.mux_l1_in_1_.TGATE_2_.scs8hd_ebufn_2 mux_left_ipin_3.INVTX1_5_.scs8hd_inv_1/Y
+ mem_left_ipin_3.LATCH_2_.latch/Q mux_left_ipin_3.mux_l2_in_0_.TGATE_1_.scs8hd_ebufn_2/A
+ vgnd vpwr scs8hd_ebufn_2
XFILLER_7_71 vpwr vgnd scs8hd_fill_2
XANTENNA__094__A address[3] vgnd vpwr scs8hd_diode_2
XFILLER_26_36 vgnd vpwr scs8hd_fill_1
XFILLER_26_69 vgnd vpwr scs8hd_fill_1
XFILLER_42_79 vgnd vpwr scs8hd_decap_6