* NGSPICE file created from decoder6to61.ext - technology: EFS8A

* Black-box entry subcircuit for scs8hd_decap_12 abstract view
.subckt scs8hd_decap_12 vgnd vpwr
.ends

* Black-box entry subcircuit for scs8hd_fill_1 abstract view
.subckt scs8hd_fill_1 vgnd vpwr
.ends

* Black-box entry subcircuit for scs8hd_diode_2 abstract view
.subckt scs8hd_diode_2 DIODE vgnd vpwr
.ends

* Black-box entry subcircuit for scs8hd_fill_2 abstract view
.subckt scs8hd_fill_2 vpwr vgnd
.ends

* Black-box entry subcircuit for scs8hd_decap_8 abstract view
.subckt scs8hd_decap_8 vgnd vpwr
.ends

* Black-box entry subcircuit for scs8hd_decap_3 abstract view
.subckt scs8hd_decap_3 vgnd vpwr
.ends

* Black-box entry subcircuit for scs8hd_or4_4 abstract view
.subckt scs8hd_or4_4 A B C D X vgnd vpwr
.ends

* Black-box entry subcircuit for scs8hd_nor2_4 abstract view
.subckt scs8hd_nor2_4 A B Y vgnd vpwr
.ends

* Black-box entry subcircuit for scs8hd_decap_6 abstract view
.subckt scs8hd_decap_6 vgnd vpwr
.ends

* Black-box entry subcircuit for scs8hd_inv_8 abstract view
.subckt scs8hd_inv_8 A Y vgnd vpwr
.ends

* Black-box entry subcircuit for scs8hd_tapvpwrvgnd_1 abstract view
.subckt scs8hd_tapvpwrvgnd_1 vgnd vpwr
.ends

* Black-box entry subcircuit for scs8hd_decap_4 abstract view
.subckt scs8hd_decap_4 vgnd vpwr
.ends

* Black-box entry subcircuit for scs8hd_or3_4 abstract view
.subckt scs8hd_or3_4 A B C X vgnd vpwr
.ends

.subckt decoder6to61 address[0] address[1] address[2] address[3] address[4] address[5]
+ data_out[0] data_out[10] data_out[11] data_out[12] data_out[13] data_out[14] data_out[15]
+ data_out[16] data_out[17] data_out[18] data_out[19] data_out[1] data_out[20] data_out[21]
+ data_out[22] data_out[23] data_out[24] data_out[25] data_out[26] data_out[27] data_out[28]
+ data_out[29] data_out[2] data_out[30] data_out[31] data_out[32] data_out[33] data_out[34]
+ data_out[35] data_out[36] data_out[37] data_out[38] data_out[39] data_out[3] data_out[40]
+ data_out[41] data_out[42] data_out[43] data_out[44] data_out[45] data_out[46] data_out[47]
+ data_out[48] data_out[49] data_out[4] data_out[50] data_out[51] data_out[52] data_out[53]
+ data_out[54] data_out[55] data_out[56] data_out[57] data_out[58] data_out[59] data_out[5]
+ data_out[60] data_out[6] data_out[7] data_out[8] data_out[9] enable vpwr vgnd
XFILLER_22_166 vgnd vpwr scs8hd_decap_12
XFILLER_22_133 vgnd vpwr scs8hd_fill_1
XANTENNA__113__B _112_/B vgnd vpwr scs8hd_diode_2
XFILLER_9_159 vgnd vpwr scs8hd_decap_12
XFILLER_33_228 vpwr vgnd scs8hd_fill_2
XANTENNA__108__B _107_/B vgnd vpwr scs8hd_diode_2
XFILLER_12_32 vgnd vpwr scs8hd_decap_12
XFILLER_6_118 vgnd vpwr scs8hd_decap_12
XFILLER_24_206 vgnd vpwr scs8hd_decap_8
XFILLER_5_184 vgnd vpwr scs8hd_decap_3
XFILLER_23_86 vgnd vpwr scs8hd_decap_12
XANTENNA__034__A _028_/Y vgnd vpwr scs8hd_diode_2
X_062_ address[2] _031_/Y address[4] address[5] _065_/B vgnd vpwr scs8hd_or4_4
XFILLER_0_13 vpwr vgnd scs8hd_fill_2
XFILLER_2_154 vgnd vpwr scs8hd_decap_12
XANTENNA__029__A address[5] vgnd vpwr scs8hd_diode_2
X_045_ _082_/A _044_/B data_out[25] vgnd vpwr scs8hd_nor2_4
XFILLER_22_7 vgnd vpwr scs8hd_decap_12
X_114_ _036_/A _080_/A data_out[31] vgnd vpwr scs8hd_nor2_4
XFILLER_7_224 vpwr vgnd scs8hd_fill_2
XFILLER_29_74 vgnd vpwr scs8hd_decap_12
XFILLER_20_32 vgnd vpwr scs8hd_decap_12
XFILLER_4_205 vgnd vpwr scs8hd_decap_6
X_028_ address[4] _028_/Y vgnd vpwr scs8hd_inv_8
XFILLER_13_3 vgnd vpwr scs8hd_decap_12
XFILLER_6_56 vgnd vpwr scs8hd_decap_12
XFILLER_15_98 vgnd vpwr scs8hd_decap_12
XANTENNA__042__A _027_/Y vgnd vpwr scs8hd_diode_2
XPHY_192 vgnd vpwr scs8hd_tapvpwrvgnd_1
XFILLER_31_167 vgnd vpwr scs8hd_decap_12
XFILLER_31_123 vgnd vpwr scs8hd_decap_12
XPHY_181 vgnd vpwr scs8hd_tapvpwrvgnd_1
XPHY_170 vgnd vpwr scs8hd_tapvpwrvgnd_1
XFILLER_0_230 vgnd vpwr scs8hd_decap_3
XFILLER_22_178 vgnd vpwr scs8hd_decap_12
XANTENNA__037__A _027_/Y vgnd vpwr scs8hd_diode_2
XFILLER_13_123 vgnd vpwr scs8hd_decap_12
XFILLER_3_13 vpwr vgnd scs8hd_fill_2
XFILLER_8_182 vpwr vgnd scs8hd_fill_2
XFILLER_12_44 vgnd vpwr scs8hd_decap_12
XANTENNA__034__B address[5] vgnd vpwr scs8hd_diode_2
XANTENNA__050__A _082_/A vgnd vpwr scs8hd_diode_2
XFILLER_23_98 vgnd vpwr scs8hd_decap_12
XFILLER_9_12 vgnd vpwr scs8hd_decap_12
XFILLER_0_58 vpwr vgnd scs8hd_fill_2
XFILLER_0_25 vgnd vpwr scs8hd_decap_4
XFILLER_2_166 vgnd vpwr scs8hd_decap_6
XFILLER_2_199 vpwr vgnd scs8hd_fill_2
X_061_ _083_/A _058_/B data_out[12] vgnd vpwr scs8hd_nor2_4
XANTENNA__045__A _082_/A vgnd vpwr scs8hd_diode_2
X_044_ _091_/A _044_/B data_out[26] vgnd vpwr scs8hd_nor2_4
XFILLER_18_32 vgnd vpwr scs8hd_decap_12
X_113_ _083_/A _112_/B data_out[32] vgnd vpwr scs8hd_nor2_4
XFILLER_11_232 vgnd vpwr scs8hd_fill_1
XFILLER_29_86 vgnd vpwr scs8hd_decap_12
XFILLER_20_44 vgnd vpwr scs8hd_decap_12
XFILLER_19_184 vgnd vpwr scs8hd_decap_12
X_027_ enable _027_/Y vgnd vpwr scs8hd_inv_8
XFILLER_6_68 vgnd vpwr scs8hd_decap_4
XFILLER_34_198 vgnd vpwr scs8hd_decap_12
XFILLER_34_154 vgnd vpwr scs8hd_decap_8
XFILLER_25_143 vpwr vgnd scs8hd_fill_2
XFILLER_25_110 vgnd vpwr scs8hd_decap_12
XANTENNA__042__B _032_/Y vgnd vpwr scs8hd_diode_2
XPHY_193 vgnd vpwr scs8hd_tapvpwrvgnd_1
XFILLER_31_179 vgnd vpwr scs8hd_decap_4
XFILLER_31_135 vgnd vpwr scs8hd_decap_12
XFILLER_31_43 vgnd vpwr scs8hd_decap_12
XPHY_182 vgnd vpwr scs8hd_tapvpwrvgnd_1
XPHY_171 vgnd vpwr scs8hd_tapvpwrvgnd_1
XPHY_160 vgnd vpwr scs8hd_tapvpwrvgnd_1
XFILLER_16_154 vgnd vpwr scs8hd_decap_12
XANTENNA__037__B _032_/Y vgnd vpwr scs8hd_diode_2
XFILLER_26_32 vgnd vpwr scs8hd_decap_12
XANTENNA__053__A _080_/A vgnd vpwr scs8hd_diode_2
XFILLER_13_179 vpwr vgnd scs8hd_fill_2
XFILLER_13_135 vgnd vpwr scs8hd_decap_12
XFILLER_3_47 vgnd vpwr scs8hd_decap_12
XANTENNA__048__A _080_/A vgnd vpwr scs8hd_diode_2
XFILLER_12_56 vgnd vpwr scs8hd_decap_3
XFILLER_12_12 vgnd vpwr scs8hd_decap_12
XFILLER_10_105 vgnd vpwr scs8hd_decap_12
XFILLER_5_153 vgnd vpwr scs8hd_fill_1
XFILLER_15_208 vgnd vpwr scs8hd_fill_1
XANTENNA__034__C _034_/C vgnd vpwr scs8hd_diode_2
XANTENNA__050__B _048_/B vgnd vpwr scs8hd_diode_2
XFILLER_23_11 vgnd vpwr scs8hd_decap_12
XFILLER_9_24 vgnd vpwr scs8hd_decap_12
X_060_ _082_/A _058_/B data_out[13] vgnd vpwr scs8hd_nor2_4
XFILLER_3_3 vgnd vpwr scs8hd_fill_1
XFILLER_34_32 vgnd vpwr scs8hd_decap_12
XANTENNA__045__B _044_/B vgnd vpwr scs8hd_diode_2
X_112_ _082_/A _112_/B data_out[33] vgnd vpwr scs8hd_nor2_4
XFILLER_18_44 vgnd vpwr scs8hd_decap_12
XFILLER_7_204 vpwr vgnd scs8hd_fill_2
XANTENNA__061__A _083_/A vgnd vpwr scs8hd_diode_2
X_043_ _044_/B _080_/A data_out[27] vgnd vpwr scs8hd_nor2_4
XANTENNA__056__A _083_/A vgnd vpwr scs8hd_diode_2
XFILLER_20_56 vgnd vpwr scs8hd_decap_12
XFILLER_29_98 vgnd vpwr scs8hd_decap_12
XFILLER_28_141 vgnd vpwr scs8hd_decap_12
XFILLER_19_196 vpwr vgnd scs8hd_fill_2
XANTENNA__042__C _033_/Y vgnd vpwr scs8hd_diode_2
XFILLER_31_77 vpwr vgnd scs8hd_fill_2
XFILLER_31_55 vgnd vpwr scs8hd_decap_6
XFILLER_16_166 vgnd vpwr scs8hd_decap_12
XFILLER_15_12 vgnd vpwr scs8hd_decap_12
XFILLER_0_210 vgnd vpwr scs8hd_fill_1
XPHY_194 vgnd vpwr scs8hd_tapvpwrvgnd_1
XFILLER_31_147 vgnd vpwr scs8hd_decap_12
XPHY_183 vgnd vpwr scs8hd_tapvpwrvgnd_1
XPHY_172 vgnd vpwr scs8hd_tapvpwrvgnd_1
XPHY_161 vgnd vpwr scs8hd_tapvpwrvgnd_1
XFILLER_22_136 vgnd vpwr scs8hd_decap_12
XPHY_150 vgnd vpwr scs8hd_tapvpwrvgnd_1
XFILLER_30_191 vpwr vgnd scs8hd_fill_2
XFILLER_26_44 vgnd vpwr scs8hd_decap_12
XFILLER_13_147 vgnd vpwr scs8hd_decap_12
XANTENNA__053__B _055_/B vgnd vpwr scs8hd_diode_2
XANTENNA__037__C address[1] vgnd vpwr scs8hd_diode_2
XFILLER_8_195 vpwr vgnd scs8hd_fill_2
XFILLER_3_59 vpwr vgnd scs8hd_fill_2
XANTENNA__048__B _048_/B vgnd vpwr scs8hd_diode_2
XFILLER_12_68 vgnd vpwr scs8hd_decap_12
XFILLER_12_24 vgnd vpwr scs8hd_decap_6
XFILLER_10_117 vgnd vpwr scs8hd_decap_12
XANTENNA__064__A _091_/A vgnd vpwr scs8hd_diode_2
XFILLER_5_7 vpwr vgnd scs8hd_fill_2
XFILLER_5_110 vgnd vpwr scs8hd_decap_12
XFILLER_5_198 vpwr vgnd scs8hd_fill_2
XANTENNA__034__D _031_/Y vgnd vpwr scs8hd_diode_2
XFILLER_4_80 vgnd vpwr scs8hd_decap_12
XFILLER_23_23 vgnd vpwr scs8hd_decap_12
XANTENNA__059__A _091_/A vgnd vpwr scs8hd_diode_2
XFILLER_29_3 vpwr vgnd scs8hd_fill_2
XFILLER_9_36 vgnd vpwr scs8hd_decap_12
XFILLER_34_44 vgnd vpwr scs8hd_decap_12
XFILLER_18_56 vgnd vpwr scs8hd_decap_12
XFILLER_18_12 vgnd vpwr scs8hd_decap_12
XANTENNA__061__B _058_/B vgnd vpwr scs8hd_diode_2
X_111_ _091_/A _112_/B data_out[34] vgnd vpwr scs8hd_nor2_4
X_042_ _027_/Y _032_/Y _033_/Y _080_/A vgnd vpwr scs8hd_or3_4
XANTENNA__056__B _055_/B vgnd vpwr scs8hd_diode_2
XANTENNA__072__A address[2] vgnd vpwr scs8hd_diode_2
XFILLER_29_11 vgnd vpwr scs8hd_decap_12
XFILLER_20_68 vgnd vpwr scs8hd_decap_12
XFILLER_19_120 vpwr vgnd scs8hd_fill_2
XFILLER_20_7 vgnd vpwr scs8hd_decap_12
XFILLER_25_156 vgnd vpwr scs8hd_decap_12
XFILLER_25_123 vgnd vpwr scs8hd_decap_12
XFILLER_15_24 vgnd vpwr scs8hd_decap_12
XFILLER_0_200 vpwr vgnd scs8hd_fill_2
XANTENNA__067__A _034_/C vgnd vpwr scs8hd_diode_2
XPHY_195 vgnd vpwr scs8hd_tapvpwrvgnd_1
XFILLER_31_159 vpwr vgnd scs8hd_fill_2
XPHY_184 vgnd vpwr scs8hd_tapvpwrvgnd_1
XPHY_173 vgnd vpwr scs8hd_tapvpwrvgnd_1
XPHY_162 vgnd vpwr scs8hd_tapvpwrvgnd_1
XPHY_151 vgnd vpwr scs8hd_tapvpwrvgnd_1
XPHY_140 vgnd vpwr scs8hd_tapvpwrvgnd_1
XFILLER_16_178 vgnd vpwr scs8hd_decap_12
XFILLER_11_3 vpwr vgnd scs8hd_fill_2
XFILLER_26_56 vgnd vpwr scs8hd_decap_12
XFILLER_22_148 vgnd vpwr scs8hd_decap_4
XFILLER_13_159 vgnd vpwr scs8hd_decap_12
XFILLER_10_129 vgnd vpwr scs8hd_decap_12
XFILLER_8_141 vgnd vpwr scs8hd_decap_12
XANTENNA__064__B _065_/B vgnd vpwr scs8hd_diode_2
XANTENNA__080__A _080_/A vgnd vpwr scs8hd_diode_2
XFILLER_32_232 vgnd vpwr scs8hd_fill_1
XFILLER_32_210 vgnd vpwr scs8hd_decap_4
XFILLER_5_177 vgnd vpwr scs8hd_decap_4
XFILLER_23_35 vgnd vpwr scs8hd_decap_12
XANTENNA__059__B _058_/B vgnd vpwr scs8hd_diode_2
XANTENNA__075__A _082_/A vgnd vpwr scs8hd_diode_2
XFILLER_14_232 vgnd vpwr scs8hd_fill_1
XFILLER_9_48 vgnd vpwr scs8hd_decap_12
XFILLER_0_17 vpwr vgnd scs8hd_fill_2
XFILLER_20_202 vpwr vgnd scs8hd_fill_2
XFILLER_18_68 vgnd vpwr scs8hd_decap_12
XFILLER_18_24 vgnd vpwr scs8hd_decap_6
XFILLER_34_56 vgnd vpwr scs8hd_decap_12
X_110_ _080_/A _112_/B data_out[35] vgnd vpwr scs8hd_nor2_4
X_041_ _028_/Y address[5] address[2] _031_/Y _044_/B vgnd vpwr scs8hd_or4_4
XFILLER_7_228 vpwr vgnd scs8hd_fill_2
XFILLER_29_23 vgnd vpwr scs8hd_decap_12
XFILLER_28_154 vgnd vpwr scs8hd_decap_12
XANTENNA__072__B address[3] vgnd vpwr scs8hd_diode_2
XFILLER_10_80 vgnd vpwr scs8hd_decap_12
XFILLER_3_231 vpwr vgnd scs8hd_fill_2
XANTENNA__083__A _083_/A vgnd vpwr scs8hd_diode_2
XFILLER_31_35 vpwr vgnd scs8hd_fill_2
XFILLER_25_168 vgnd vpwr scs8hd_decap_12
XFILLER_25_135 vgnd vpwr scs8hd_decap_8
XFILLER_15_36 vgnd vpwr scs8hd_decap_12
XANTENNA__067__B address[3] vgnd vpwr scs8hd_diode_2
XPHY_196 vgnd vpwr scs8hd_tapvpwrvgnd_1
XPHY_185 vgnd vpwr scs8hd_tapvpwrvgnd_1
XFILLER_31_105 vgnd vpwr scs8hd_decap_12
XPHY_174 vgnd vpwr scs8hd_tapvpwrvgnd_1
XPHY_163 vgnd vpwr scs8hd_tapvpwrvgnd_1
XFILLER_24_190 vgnd vpwr scs8hd_decap_6
XPHY_152 vgnd vpwr scs8hd_tapvpwrvgnd_1
XPHY_141 vgnd vpwr scs8hd_tapvpwrvgnd_1
XPHY_130 vgnd vpwr scs8hd_tapvpwrvgnd_1
XFILLER_22_105 vgnd vpwr scs8hd_decap_12
XFILLER_7_81 vgnd vpwr scs8hd_decap_12
XFILLER_26_68 vgnd vpwr scs8hd_decap_12
XFILLER_21_171 vgnd vpwr scs8hd_decap_12
XANTENNA__078__A _083_/A vgnd vpwr scs8hd_diode_2
XFILLER_3_17 vpwr vgnd scs8hd_fill_2
XFILLER_35_230 vgnd vpwr scs8hd_decap_3
XFILLER_27_208 vgnd vpwr scs8hd_decap_12
XANTENNA__080__B _082_/B vgnd vpwr scs8hd_diode_2
XFILLER_5_123 vgnd vpwr scs8hd_decap_12
XFILLER_5_156 vpwr vgnd scs8hd_fill_2
XANTENNA__091__A _091_/A vgnd vpwr scs8hd_diode_2
XFILLER_23_47 vgnd vpwr scs8hd_decap_12
XANTENNA__075__B _076_/B vgnd vpwr scs8hd_diode_2
XFILLER_4_93 vgnd vpwr scs8hd_decap_12
XFILLER_1_192 vpwr vgnd scs8hd_fill_2
XFILLER_34_68 vgnd vpwr scs8hd_decap_12
XANTENNA__086__A _091_/A vgnd vpwr scs8hd_diode_2
XFILLER_11_203 vpwr vgnd scs8hd_fill_2
X_040_ _036_/A _083_/A data_out[28] vgnd vpwr scs8hd_nor2_4
XFILLER_1_3 vgnd vpwr scs8hd_fill_1
XFILLER_34_3 vgnd vpwr scs8hd_decap_12
XFILLER_1_50 vgnd vpwr scs8hd_decap_8
XFILLER_29_35 vgnd vpwr scs8hd_decap_12
XFILLER_28_166 vgnd vpwr scs8hd_decap_12
XANTENNA__072__C address[4] vgnd vpwr scs8hd_diode_2
XFILLER_3_210 vpwr vgnd scs8hd_fill_2
XANTENNA__083__B _082_/B vgnd vpwr scs8hd_diode_2
XFILLER_15_48 vgnd vpwr scs8hd_decap_12
XANTENNA__067__C address[4] vgnd vpwr scs8hd_diode_2
XPHY_197 vgnd vpwr scs8hd_tapvpwrvgnd_1
XPHY_186 vgnd vpwr scs8hd_tapvpwrvgnd_1
XFILLER_31_117 vgnd vpwr scs8hd_decap_4
XPHY_175 vgnd vpwr scs8hd_tapvpwrvgnd_1
XPHY_164 vgnd vpwr scs8hd_tapvpwrvgnd_1
XPHY_153 vgnd vpwr scs8hd_tapvpwrvgnd_1
XPHY_142 vgnd vpwr scs8hd_tapvpwrvgnd_1
XPHY_131 vgnd vpwr scs8hd_tapvpwrvgnd_1
XPHY_120 vgnd vpwr scs8hd_tapvpwrvgnd_1
XFILLER_0_213 vpwr vgnd scs8hd_fill_2
XFILLER_22_117 vgnd vpwr scs8hd_decap_12
XPHY_0 vgnd vpwr scs8hd_decap_3
XFILLER_7_93 vgnd vpwr scs8hd_decap_8
XANTENNA__094__A _034_/C vgnd vpwr scs8hd_diode_2
XANTENNA__078__B _077_/X vgnd vpwr scs8hd_diode_2
XFILLER_16_80 vgnd vpwr scs8hd_decap_12
XFILLER_12_183 vpwr vgnd scs8hd_fill_2
XFILLER_8_154 vgnd vpwr scs8hd_decap_12
XANTENNA__089__A address[2] vgnd vpwr scs8hd_diode_2
XFILLER_5_135 vgnd vpwr scs8hd_decap_12
XFILLER_5_168 vgnd vpwr scs8hd_fill_1
XFILLER_23_59 vpwr vgnd scs8hd_fill_2
XANTENNA__091__B _091_/B vgnd vpwr scs8hd_diode_2
XFILLER_2_105 vgnd vpwr scs8hd_decap_12
XFILLER_20_215 vgnd vpwr scs8hd_decap_12
XFILLER_1_171 vpwr vgnd scs8hd_fill_2
XANTENNA__086__B _086_/B vgnd vpwr scs8hd_diode_2
XFILLER_7_208 vgnd vpwr scs8hd_decap_4
XFILLER_24_80 vgnd vpwr scs8hd_decap_12
X_099_ address[2] _031_/Y address[4] _099_/D _100_/B vgnd vpwr scs8hd_or4_4
XFILLER_29_47 vgnd vpwr scs8hd_decap_12
XANTENNA__072__D address[5] vgnd vpwr scs8hd_diode_2
XFILLER_1_62 vgnd vpwr scs8hd_decap_12
XFILLER_28_178 vgnd vpwr scs8hd_decap_12
XFILLER_19_123 vgnd vpwr scs8hd_decap_12
XFILLER_10_93 vgnd vpwr scs8hd_decap_12
XANTENNA__097__A _082_/A vgnd vpwr scs8hd_diode_2
XANTENNA__067__D address[5] vgnd vpwr scs8hd_diode_2
XPHY_198 vgnd vpwr scs8hd_tapvpwrvgnd_1
XFILLER_33_192 vpwr vgnd scs8hd_fill_2
XPHY_187 vgnd vpwr scs8hd_tapvpwrvgnd_1
XFILLER_31_15 vgnd vpwr scs8hd_decap_12
XPHY_176 vgnd vpwr scs8hd_tapvpwrvgnd_1
XPHY_165 vgnd vpwr scs8hd_tapvpwrvgnd_1
XPHY_154 vgnd vpwr scs8hd_tapvpwrvgnd_1
XPHY_143 vgnd vpwr scs8hd_tapvpwrvgnd_1
XPHY_132 vgnd vpwr scs8hd_tapvpwrvgnd_1
XPHY_121 vgnd vpwr scs8hd_tapvpwrvgnd_1
XPHY_110 vgnd vpwr scs8hd_tapvpwrvgnd_1
XFILLER_30_195 vpwr vgnd scs8hd_fill_2
XFILLER_22_129 vgnd vpwr scs8hd_decap_4
XPHY_1 vgnd vpwr scs8hd_decap_3
XFILLER_21_184 vgnd vpwr scs8hd_decap_12
XANTENNA__094__B _031_/Y vgnd vpwr scs8hd_diode_2
XFILLER_8_199 vpwr vgnd scs8hd_fill_2
XANTENNA__089__B address[3] vgnd vpwr scs8hd_diode_2
XFILLER_17_221 vgnd vpwr scs8hd_decap_12
XFILLER_5_147 vgnd vpwr scs8hd_decap_6
XFILLER_32_224 vgnd vpwr scs8hd_decap_8
XFILLER_4_180 vpwr vgnd scs8hd_fill_2
XFILLER_14_224 vgnd vpwr scs8hd_decap_8
XFILLER_14_202 vgnd vpwr scs8hd_decap_12
XFILLER_2_117 vgnd vpwr scs8hd_decap_12
XFILLER_29_7 vpwr vgnd scs8hd_fill_2
XFILLER_20_227 vgnd vpwr scs8hd_decap_6
XFILLER_34_15 vgnd vpwr scs8hd_decap_12
XFILLER_11_216 vgnd vpwr scs8hd_decap_12
X_098_ _083_/A _095_/B data_out[44] vgnd vpwr scs8hd_nor2_4
XFILLER_1_74 vgnd vpwr scs8hd_decap_12
XFILLER_1_30 vpwr vgnd scs8hd_fill_2
XFILLER_29_59 vpwr vgnd scs8hd_fill_2
XFILLER_3_223 vpwr vgnd scs8hd_fill_2
XANTENNA__097__B _095_/B vgnd vpwr scs8hd_diode_2
XFILLER_34_105 vgnd vpwr scs8hd_decap_12
XFILLER_19_135 vgnd vpwr scs8hd_decap_12
XFILLER_33_171 vgnd vpwr scs8hd_decap_12
XFILLER_31_27 vgnd vpwr scs8hd_decap_8
XFILLER_18_190 vgnd vpwr scs8hd_decap_8
XFILLER_16_105 vgnd vpwr scs8hd_decap_12
XFILLER_0_204 vgnd vpwr scs8hd_decap_6
XPHY_100 vgnd vpwr scs8hd_tapvpwrvgnd_1
XPHY_199 vgnd vpwr scs8hd_tapvpwrvgnd_1
XPHY_188 vgnd vpwr scs8hd_tapvpwrvgnd_1
XPHY_177 vgnd vpwr scs8hd_tapvpwrvgnd_1
XPHY_166 vgnd vpwr scs8hd_tapvpwrvgnd_1
XPHY_155 vgnd vpwr scs8hd_tapvpwrvgnd_1
XFILLER_21_60 vgnd vpwr scs8hd_fill_1
XPHY_144 vgnd vpwr scs8hd_tapvpwrvgnd_1
XPHY_133 vgnd vpwr scs8hd_tapvpwrvgnd_1
XFILLER_15_171 vgnd vpwr scs8hd_decap_12
XPHY_122 vgnd vpwr scs8hd_tapvpwrvgnd_1
XFILLER_11_7 vpwr vgnd scs8hd_fill_2
XPHY_111 vgnd vpwr scs8hd_tapvpwrvgnd_1
XPHY_2 vgnd vpwr scs8hd_decap_3
XFILLER_30_141 vgnd vpwr scs8hd_decap_12
XFILLER_21_196 vgnd vpwr scs8hd_decap_6
XFILLER_7_51 vgnd vpwr scs8hd_decap_8
XFILLER_7_62 vgnd vpwr scs8hd_decap_8
XANTENNA__094__C address[4] vgnd vpwr scs8hd_diode_2
XFILLER_32_70 vgnd vpwr scs8hd_decap_3
XFILLER_16_93 vgnd vpwr scs8hd_decap_12
XFILLER_12_196 vpwr vgnd scs8hd_fill_2
XFILLER_12_141 vgnd vpwr scs8hd_decap_12
XFILLER_8_178 vpwr vgnd scs8hd_fill_2
XFILLER_35_211 vgnd vpwr scs8hd_decap_6
XFILLER_26_200 vgnd vpwr scs8hd_decap_12
XANTENNA__089__C _028_/Y vgnd vpwr scs8hd_diode_2
XFILLER_23_203 vgnd vpwr scs8hd_decap_12
XFILLER_2_129 vgnd vpwr scs8hd_decap_12
XFILLER_1_184 vpwr vgnd scs8hd_fill_2
XFILLER_34_27 vgnd vpwr scs8hd_decap_4
XFILLER_20_206 vgnd vpwr scs8hd_decap_8
XFILLER_11_228 vgnd vpwr scs8hd_decap_4
XFILLER_24_93 vgnd vpwr scs8hd_decap_12
XFILLER_6_232 vgnd vpwr scs8hd_fill_1
XFILLER_1_86 vgnd vpwr scs8hd_decap_12
X_097_ _082_/A _095_/B data_out[45] vgnd vpwr scs8hd_nor2_4
XFILLER_34_117 vgnd vpwr scs8hd_decap_12
XFILLER_32_3 vgnd vpwr scs8hd_decap_12
XFILLER_19_147 vgnd vpwr scs8hd_decap_12
XFILLER_31_39 vpwr vgnd scs8hd_fill_2
XPHY_189 vgnd vpwr scs8hd_tapvpwrvgnd_1
XPHY_178 vgnd vpwr scs8hd_tapvpwrvgnd_1
XPHY_167 vgnd vpwr scs8hd_tapvpwrvgnd_1
XPHY_156 vgnd vpwr scs8hd_tapvpwrvgnd_1
XPHY_145 vgnd vpwr scs8hd_tapvpwrvgnd_1
XPHY_134 vgnd vpwr scs8hd_tapvpwrvgnd_1
XFILLER_16_117 vgnd vpwr scs8hd_decap_12
XPHY_123 vgnd vpwr scs8hd_tapvpwrvgnd_1
XPHY_112 vgnd vpwr scs8hd_tapvpwrvgnd_1
XPHY_101 vgnd vpwr scs8hd_tapvpwrvgnd_1
XFILLER_30_186 vgnd vpwr scs8hd_decap_3
XPHY_3 vgnd vpwr scs8hd_decap_3
XANTENNA__094__D _099_/D vgnd vpwr scs8hd_diode_2
XFILLER_32_93 vgnd vpwr scs8hd_decap_12
XFILLER_8_168 vgnd vpwr scs8hd_fill_1
XFILLER_26_212 vpwr vgnd scs8hd_fill_2
XANTENNA__089__D _099_/D vgnd vpwr scs8hd_diode_2
XFILLER_27_60 vgnd vpwr scs8hd_fill_1
XFILLER_4_20 vgnd vpwr scs8hd_decap_8
XFILLER_23_215 vgnd vpwr scs8hd_decap_12
XFILLER_13_62 vgnd vpwr scs8hd_decap_12
XFILLER_13_51 vgnd vpwr scs8hd_decap_8
XANTENNA__100__A _080_/A vgnd vpwr scs8hd_diode_2
XFILLER_9_230 vgnd vpwr scs8hd_decap_3
X_096_ _091_/A _095_/B data_out[46] vgnd vpwr scs8hd_nor2_4
XFILLER_1_98 vgnd vpwr scs8hd_decap_12
XFILLER_1_21 vpwr vgnd scs8hd_fill_2
XFILLER_20_19 vgnd vpwr scs8hd_decap_12
XFILLER_34_129 vgnd vpwr scs8hd_decap_12
XFILLER_19_159 vgnd vpwr scs8hd_decap_12
XFILLER_19_94 vgnd vpwr scs8hd_decap_3
XFILLER_33_184 vpwr vgnd scs8hd_fill_2
XFILLER_33_162 vgnd vpwr scs8hd_decap_3
XFILLER_25_3 vgnd vpwr scs8hd_decap_12
X_079_ address[2] _031_/Y _028_/Y _099_/D _082_/B vgnd vpwr scs8hd_or4_4
XPHY_179 vgnd vpwr scs8hd_tapvpwrvgnd_1
XPHY_168 vgnd vpwr scs8hd_tapvpwrvgnd_1
XPHY_157 vgnd vpwr scs8hd_tapvpwrvgnd_1
XFILLER_21_62 vgnd vpwr scs8hd_decap_12
XPHY_146 vgnd vpwr scs8hd_tapvpwrvgnd_1
XPHY_135 vgnd vpwr scs8hd_tapvpwrvgnd_1
XFILLER_16_129 vgnd vpwr scs8hd_decap_12
XPHY_124 vgnd vpwr scs8hd_tapvpwrvgnd_1
XPHY_113 vgnd vpwr scs8hd_tapvpwrvgnd_1
XPHY_102 vgnd vpwr scs8hd_tapvpwrvgnd_1
XFILLER_30_154 vgnd vpwr scs8hd_decap_12
XFILLER_15_184 vgnd vpwr scs8hd_decap_12
XPHY_4 vgnd vpwr scs8hd_decap_3
XFILLER_29_232 vgnd vpwr scs8hd_fill_1
XFILLER_21_110 vgnd vpwr scs8hd_decap_12
XANTENNA__103__A _083_/A vgnd vpwr scs8hd_diode_2
XFILLER_12_154 vgnd vpwr scs8hd_decap_12
XFILLER_23_227 vgnd vpwr scs8hd_decap_6
XFILLER_4_32 vgnd vpwr scs8hd_decap_12
XFILLER_13_74 vgnd vpwr scs8hd_decap_12
XANTENNA__100__B _100_/B vgnd vpwr scs8hd_diode_2
XFILLER_1_175 vpwr vgnd scs8hd_fill_2
X_095_ _080_/A _095_/B data_out[47] vgnd vpwr scs8hd_nor2_4
XANTENNA__111__A _091_/A vgnd vpwr scs8hd_diode_2
XFILLER_6_201 vpwr vgnd scs8hd_fill_2
XFILLER_28_105 vgnd vpwr scs8hd_decap_12
XFILLER_35_94 vgnd vpwr scs8hd_decap_12
XFILLER_27_171 vgnd vpwr scs8hd_decap_12
XFILLER_19_62 vgnd vpwr scs8hd_decap_12
XFILLER_19_51 vgnd vpwr scs8hd_decap_8
XFILLER_3_204 vgnd vpwr scs8hd_decap_4
XANTENNA__106__A _091_/A vgnd vpwr scs8hd_diode_2
X_078_ _083_/A _077_/X data_out[60] vgnd vpwr scs8hd_nor2_4
XPHY_169 vgnd vpwr scs8hd_tapvpwrvgnd_1
XFILLER_24_196 vgnd vpwr scs8hd_fill_1
XFILLER_24_141 vgnd vpwr scs8hd_decap_6
XPHY_158 vgnd vpwr scs8hd_tapvpwrvgnd_1
XFILLER_21_74 vgnd vpwr scs8hd_decap_12
XPHY_147 vgnd vpwr scs8hd_tapvpwrvgnd_1
XPHY_136 vgnd vpwr scs8hd_tapvpwrvgnd_1
XPHY_125 vgnd vpwr scs8hd_tapvpwrvgnd_1
XPHY_114 vgnd vpwr scs8hd_tapvpwrvgnd_1
XPHY_103 vgnd vpwr scs8hd_tapvpwrvgnd_1
XFILLER_0_218 vgnd vpwr scs8hd_decap_12
XFILLER_30_199 vgnd vpwr scs8hd_decap_12
XFILLER_30_166 vgnd vpwr scs8hd_decap_12
XFILLER_15_196 vgnd vpwr scs8hd_decap_12
XPHY_5 vgnd vpwr scs8hd_decap_3
XFILLER_29_211 vpwr vgnd scs8hd_fill_2
XFILLER_26_19 vgnd vpwr scs8hd_decap_12
XFILLER_32_84 vgnd vpwr scs8hd_decap_8
XANTENNA__103__B _100_/B vgnd vpwr scs8hd_diode_2
XFILLER_12_166 vgnd vpwr scs8hd_decap_12
XFILLER_27_62 vgnd vpwr scs8hd_decap_12
XFILLER_17_214 vgnd vpwr scs8hd_fill_1
XANTENNA__114__A _036_/A vgnd vpwr scs8hd_diode_2
XFILLER_4_44 vgnd vpwr scs8hd_decap_12
XFILLER_4_184 vpwr vgnd scs8hd_fill_2
XFILLER_13_86 vgnd vpwr scs8hd_decap_12
XANTENNA__109__A address[2] vgnd vpwr scs8hd_diode_2
XFILLER_1_110 vgnd vpwr scs8hd_decap_12
XFILLER_24_30 vgnd vpwr scs8hd_fill_1
XANTENNA__111__B _112_/B vgnd vpwr scs8hd_diode_2
X_094_ _034_/C _031_/Y address[4] _099_/D _095_/B vgnd vpwr scs8hd_or4_4
XFILLER_6_224 vgnd vpwr scs8hd_decap_8
XFILLER_28_117 vgnd vpwr scs8hd_decap_12
XFILLER_1_34 vgnd vpwr scs8hd_decap_3
XFILLER_19_74 vgnd vpwr scs8hd_decap_12
XFILLER_10_32 vgnd vpwr scs8hd_decap_12
XFILLER_3_227 vpwr vgnd scs8hd_fill_2
XANTENNA__106__B _107_/B vgnd vpwr scs8hd_diode_2
X_077_ _034_/C _031_/Y _028_/Y _099_/D _077_/X vgnd vpwr scs8hd_or4_4
XPHY_159 vgnd vpwr scs8hd_tapvpwrvgnd_1
XPHY_148 vgnd vpwr scs8hd_tapvpwrvgnd_1
XPHY_137 vgnd vpwr scs8hd_tapvpwrvgnd_1
XPHY_126 vgnd vpwr scs8hd_tapvpwrvgnd_1
XPHY_115 vgnd vpwr scs8hd_tapvpwrvgnd_1
XPHY_104 vgnd vpwr scs8hd_tapvpwrvgnd_1
XANTENNA__032__A address[0] vgnd vpwr scs8hd_diode_2
XFILLER_30_178 vgnd vpwr scs8hd_decap_8
XFILLER_21_86 vgnd vpwr scs8hd_decap_12
XPHY_6 vgnd vpwr scs8hd_decap_3
XFILLER_30_3 vgnd vpwr scs8hd_fill_1
XFILLER_21_123 vgnd vpwr scs8hd_decap_12
XANTENNA__027__A enable vgnd vpwr scs8hd_diode_2
XFILLER_12_178 vgnd vpwr scs8hd_decap_3
XFILLER_8_105 vgnd vpwr scs8hd_decap_12
XFILLER_26_215 vgnd vpwr scs8hd_decap_12
XFILLER_27_74 vgnd vpwr scs8hd_decap_12
XANTENNA__114__B _080_/A vgnd vpwr scs8hd_diode_2
XFILLER_4_12 vpwr vgnd scs8hd_fill_2
XFILLER_4_56 vgnd vpwr scs8hd_decap_12
XANTENNA__040__A _036_/A vgnd vpwr scs8hd_diode_2
XFILLER_13_98 vgnd vpwr scs8hd_decap_12
XFILLER_9_222 vpwr vgnd scs8hd_fill_2
XANTENNA__109__B address[3] vgnd vpwr scs8hd_diode_2
XFILLER_8_3 vpwr vgnd scs8hd_fill_2
XFILLER_1_188 vpwr vgnd scs8hd_fill_2
XANTENNA__035__A _027_/Y vgnd vpwr scs8hd_diode_2
X_093_ _083_/A _091_/B data_out[48] vgnd vpwr scs8hd_nor2_4
XFILLER_10_232 vgnd vpwr scs8hd_fill_1
XFILLER_1_46 vpwr vgnd scs8hd_fill_2
XFILLER_1_13 vpwr vgnd scs8hd_fill_2
XFILLER_28_129 vgnd vpwr scs8hd_decap_12
XFILLER_10_44 vgnd vpwr scs8hd_decap_12
XFILLER_35_63 vgnd vpwr scs8hd_decap_12
XFILLER_27_184 vgnd vpwr scs8hd_decap_12
XFILLER_19_86 vgnd vpwr scs8hd_decap_8
X_076_ _083_/A _076_/B data_out[0] vgnd vpwr scs8hd_nor2_4
XFILLER_33_132 vgnd vpwr scs8hd_decap_12
XPHY_116 vgnd vpwr scs8hd_tapvpwrvgnd_1
XPHY_105 vgnd vpwr scs8hd_tapvpwrvgnd_1
XFILLER_24_154 vgnd vpwr scs8hd_decap_12
XFILLER_21_98 vgnd vpwr scs8hd_decap_12
XPHY_149 vgnd vpwr scs8hd_tapvpwrvgnd_1
XPHY_138 vgnd vpwr scs8hd_tapvpwrvgnd_1
XFILLER_15_110 vgnd vpwr scs8hd_decap_12
XPHY_127 vgnd vpwr scs8hd_tapvpwrvgnd_1
XPHY_7 vgnd vpwr scs8hd_decap_3
XFILLER_23_3 vpwr vgnd scs8hd_fill_2
XFILLER_21_135 vgnd vpwr scs8hd_decap_12
X_059_ _091_/A _058_/B data_out[14] vgnd vpwr scs8hd_nor2_4
XFILLER_29_224 vgnd vpwr scs8hd_decap_8
XFILLER_20_190 vgnd vpwr scs8hd_decap_12
XFILLER_16_32 vgnd vpwr scs8hd_decap_12
XFILLER_8_117 vgnd vpwr scs8hd_decap_12
XANTENNA__043__A _044_/B vgnd vpwr scs8hd_diode_2
XFILLER_7_194 vgnd vpwr scs8hd_fill_1
XFILLER_26_227 vgnd vpwr scs8hd_decap_6
XANTENNA__038__A _036_/A vgnd vpwr scs8hd_diode_2
XFILLER_27_86 vgnd vpwr scs8hd_decap_12
XFILLER_4_68 vgnd vpwr scs8hd_decap_12
XFILLER_4_197 vpwr vgnd scs8hd_fill_2
XANTENNA__040__B _083_/A vgnd vpwr scs8hd_diode_2
XFILLER_1_167 vpwr vgnd scs8hd_fill_2
XFILLER_1_123 vgnd vpwr scs8hd_decap_12
XFILLER_9_201 vpwr vgnd scs8hd_fill_2
XANTENNA__109__C address[4] vgnd vpwr scs8hd_diode_2
XFILLER_24_32 vgnd vpwr scs8hd_decap_12
XANTENNA__051__A _083_/A vgnd vpwr scs8hd_diode_2
XFILLER_10_211 vgnd vpwr scs8hd_decap_3
XANTENNA__035__B address[0] vgnd vpwr scs8hd_diode_2
X_092_ _082_/A _091_/B data_out[49] vgnd vpwr scs8hd_nor2_4
XFILLER_1_58 vgnd vpwr scs8hd_decap_3
XFILLER_1_25 vgnd vpwr scs8hd_decap_3
XANTENNA__046__A _083_/A vgnd vpwr scs8hd_diode_2
XFILLER_10_56 vgnd vpwr scs8hd_decap_12
XFILLER_35_75 vgnd vpwr scs8hd_decap_12
XFILLER_27_196 vgnd vpwr scs8hd_decap_12
XFILLER_19_108 vgnd vpwr scs8hd_decap_12
X_075_ _082_/A _076_/B data_out[1] vgnd vpwr scs8hd_nor2_4
XFILLER_33_188 vpwr vgnd scs8hd_fill_2
XFILLER_33_144 vgnd vpwr scs8hd_decap_3
XFILLER_24_166 vgnd vpwr scs8hd_decap_12
XPHY_139 vgnd vpwr scs8hd_tapvpwrvgnd_1
XPHY_128 vgnd vpwr scs8hd_tapvpwrvgnd_1
XPHY_117 vgnd vpwr scs8hd_tapvpwrvgnd_1
XPHY_106 vgnd vpwr scs8hd_tapvpwrvgnd_1
XFILLER_16_3 vpwr vgnd scs8hd_fill_2
X_058_ _080_/A _058_/B data_out[15] vgnd vpwr scs8hd_nor2_4
XPHY_8 vgnd vpwr scs8hd_decap_3
XFILLER_21_147 vgnd vpwr scs8hd_decap_12
XFILLER_16_44 vgnd vpwr scs8hd_decap_12
XANTENNA__043__B _080_/A vgnd vpwr scs8hd_diode_2
XFILLER_32_32 vgnd vpwr scs8hd_decap_4
XFILLER_8_129 vgnd vpwr scs8hd_decap_12
XANTENNA__038__B _082_/A vgnd vpwr scs8hd_diode_2
XANTENNA__054__A _091_/A vgnd vpwr scs8hd_diode_2
XFILLER_7_162 vpwr vgnd scs8hd_fill_2
XFILLER_7_184 vpwr vgnd scs8hd_fill_2
XFILLER_27_98 vgnd vpwr scs8hd_decap_12
XFILLER_17_217 vpwr vgnd scs8hd_fill_2
XFILLER_4_154 vgnd vpwr scs8hd_decap_4
XANTENNA__049__A _091_/A vgnd vpwr scs8hd_diode_2
XFILLER_1_179 vpwr vgnd scs8hd_fill_2
XFILLER_1_135 vgnd vpwr scs8hd_decap_12
XFILLER_13_220 vpwr vgnd scs8hd_fill_2
XANTENNA__109__D _099_/D vgnd vpwr scs8hd_diode_2
XANTENNA__051__B _048_/B vgnd vpwr scs8hd_diode_2
XANTENNA__035__C _033_/Y vgnd vpwr scs8hd_diode_2
X_091_ _091_/A _091_/B data_out[50] vgnd vpwr scs8hd_nor2_4
XFILLER_24_44 vgnd vpwr scs8hd_decap_12
XFILLER_10_201 vgnd vpwr scs8hd_decap_8
XFILLER_6_205 vpwr vgnd scs8hd_fill_2
XANTENNA__046__B _044_/B vgnd vpwr scs8hd_diode_2
XFILLER_35_87 vgnd vpwr scs8hd_decap_6
XFILLER_35_32 vgnd vpwr scs8hd_decap_12
XFILLER_10_68 vgnd vpwr scs8hd_decap_12
X_074_ _091_/A _076_/B data_out[2] vgnd vpwr scs8hd_nor2_4
XANTENNA__062__A address[2] vgnd vpwr scs8hd_diode_2
XFILLER_33_167 vpwr vgnd scs8hd_fill_2
XFILLER_24_178 vgnd vpwr scs8hd_decap_12
XFILLER_21_12 vgnd vpwr scs8hd_decap_12
XPHY_129 vgnd vpwr scs8hd_tapvpwrvgnd_1
XPHY_118 vgnd vpwr scs8hd_tapvpwrvgnd_1
XPHY_107 vgnd vpwr scs8hd_tapvpwrvgnd_1
XFILLER_2_91 vgnd vpwr scs8hd_fill_1
XANTENNA__057__A _034_/C vgnd vpwr scs8hd_diode_2
XFILLER_15_123 vgnd vpwr scs8hd_decap_12
XPHY_9 vgnd vpwr scs8hd_decap_3
X_057_ _034_/C _031_/Y address[4] address[5] _058_/B vgnd vpwr scs8hd_or4_4
XFILLER_29_204 vgnd vpwr scs8hd_fill_1
XFILLER_21_159 vgnd vpwr scs8hd_decap_12
XFILLER_35_218 vgnd vpwr scs8hd_decap_12
XFILLER_16_56 vgnd vpwr scs8hd_decap_12
X_109_ address[2] address[3] address[4] _099_/D _112_/B vgnd vpwr scs8hd_or4_4
XANTENNA__070__A _082_/A vgnd vpwr scs8hd_diode_2
XANTENNA__054__B _055_/B vgnd vpwr scs8hd_diode_2
XFILLER_31_221 vgnd vpwr scs8hd_decap_12
XFILLER_4_133 vgnd vpwr scs8hd_decap_12
XANTENNA__065__A _082_/A vgnd vpwr scs8hd_diode_2
XANTENNA__049__B _048_/B vgnd vpwr scs8hd_diode_2
XFILLER_1_147 vgnd vpwr scs8hd_decap_12
XFILLER_13_232 vgnd vpwr scs8hd_fill_1
XFILLER_24_56 vgnd vpwr scs8hd_decap_12
XFILLER_24_12 vgnd vpwr scs8hd_decap_12
XFILLER_10_224 vgnd vpwr scs8hd_decap_8
X_090_ _080_/A _091_/B data_out[51] vgnd vpwr scs8hd_nor2_4
XFILLER_6_3 vgnd vpwr scs8hd_decap_8
XFILLER_35_44 vgnd vpwr scs8hd_decap_12
XFILLER_27_110 vgnd vpwr scs8hd_decap_12
XANTENNA__062__B _031_/Y vgnd vpwr scs8hd_diode_2
XFILLER_33_102 vgnd vpwr scs8hd_fill_1
XFILLER_18_198 vpwr vgnd scs8hd_fill_2
XFILLER_18_154 vgnd vpwr scs8hd_decap_12
X_073_ _080_/A _076_/B data_out[3] vgnd vpwr scs8hd_nor2_4
XFILLER_21_24 vgnd vpwr scs8hd_decap_12
XPHY_119 vgnd vpwr scs8hd_tapvpwrvgnd_1
XPHY_108 vgnd vpwr scs8hd_tapvpwrvgnd_1
XANTENNA__073__A _080_/A vgnd vpwr scs8hd_diode_2
XANTENNA__057__B _031_/Y vgnd vpwr scs8hd_diode_2
X_056_ _083_/A _055_/B data_out[16] vgnd vpwr scs8hd_nor2_4
XFILLER_30_105 vgnd vpwr scs8hd_decap_12
XFILLER_15_135 vgnd vpwr scs8hd_decap_12
XFILLER_11_90 vgnd vpwr scs8hd_decap_12
XFILLER_7_15 vgnd vpwr scs8hd_decap_12
XFILLER_7_59 vpwr vgnd scs8hd_fill_2
XFILLER_14_190 vgnd vpwr scs8hd_decap_12
XFILLER_16_68 vgnd vpwr scs8hd_decap_12
XFILLER_12_105 vgnd vpwr scs8hd_decap_12
XANTENNA__068__A _080_/A vgnd vpwr scs8hd_diode_2
X_108_ _083_/A _107_/B data_out[36] vgnd vpwr scs8hd_nor2_4
XFILLER_11_171 vgnd vpwr scs8hd_decap_6
X_039_ _027_/Y address[0] address[1] _083_/A vgnd vpwr scs8hd_or3_4
XFILLER_7_175 vpwr vgnd scs8hd_fill_2
XFILLER_27_12 vgnd vpwr scs8hd_decap_12
XFILLER_17_208 vgnd vpwr scs8hd_decap_6
XFILLER_8_80 vgnd vpwr scs8hd_decap_12
XANTENNA__070__B _068_/B vgnd vpwr scs8hd_diode_2
XFILLER_4_16 vpwr vgnd scs8hd_fill_2
XFILLER_4_123 vgnd vpwr scs8hd_fill_1
XFILLER_4_145 vgnd vpwr scs8hd_decap_8
XANTENNA__065__B _065_/B vgnd vpwr scs8hd_diode_2
XANTENNA__081__A _091_/A vgnd vpwr scs8hd_diode_2
XFILLER_9_226 vpwr vgnd scs8hd_fill_2
XFILLER_8_7 vgnd vpwr scs8hd_decap_12
XFILLER_1_159 vgnd vpwr scs8hd_decap_8
XFILLER_24_68 vgnd vpwr scs8hd_decap_12