* NGSPICE file created from grid_clb.ext - technology: sky130A

* Black-box entry subcircuit for sky130_fd_sc_hd__fill_1 abstract view
.subckt sky130_fd_sc_hd__fill_1 VGND VNB VPB VPWR
.ends

* Black-box entry subcircuit for sky130_fd_sc_hd__decap_12 abstract view
.subckt sky130_fd_sc_hd__decap_12 VGND VNB VPB VPWR
.ends

* Black-box entry subcircuit for sky130_fd_sc_hd__fill_2 abstract view
.subckt sky130_fd_sc_hd__fill_2 VGND VNB VPB VPWR
.ends

* Black-box entry subcircuit for sky130_fd_sc_hd__diode_2 abstract view
.subckt sky130_fd_sc_hd__diode_2 DIODE VGND VNB VPB VPWR
.ends

* Black-box entry subcircuit for sky130_fd_sc_hd__buf_2 abstract view
.subckt sky130_fd_sc_hd__buf_2 A X VGND VNB VPB VPWR
.ends

* Black-box entry subcircuit for sky130_fd_sc_hd__mux2_1 abstract view
.subckt sky130_fd_sc_hd__mux2_1 A0 A1 S X VGND VNB VPB VPWR
.ends

* Black-box entry subcircuit for sky130_fd_sc_hd__dfxtp_1 abstract view
.subckt sky130_fd_sc_hd__dfxtp_1 D Q CLK VGND VNB VPB VPWR
.ends

* Black-box entry subcircuit for sky130_fd_sc_hd__decap_8 abstract view
.subckt sky130_fd_sc_hd__decap_8 VGND VNB VPB VPWR
.ends

* Black-box entry subcircuit for sky130_fd_sc_hd__decap_6 abstract view
.subckt sky130_fd_sc_hd__decap_6 VGND VNB VPB VPWR
.ends

* Black-box entry subcircuit for sky130_fd_sc_hd__conb_1 abstract view
.subckt sky130_fd_sc_hd__conb_1 HI LO VGND VNB VPB VPWR
.ends

* Black-box entry subcircuit for sky130_fd_sc_hd__clkbuf_1 abstract view
.subckt sky130_fd_sc_hd__clkbuf_1 A X VGND VNB VPB VPWR
.ends

* Black-box entry subcircuit for sky130_fd_sc_hd__decap_3 abstract view
.subckt sky130_fd_sc_hd__decap_3 VGND VNB VPB VPWR
.ends

* Black-box entry subcircuit for sky130_fd_sc_hd__tapvpwrvgnd_1 abstract view
.subckt sky130_fd_sc_hd__tapvpwrvgnd_1 VGND VPWR
.ends

* Black-box entry subcircuit for sky130_fd_sc_hd__decap_4 abstract view
.subckt sky130_fd_sc_hd__decap_4 VGND VNB VPB VPWR
.ends

* Black-box entry subcircuit for sky130_fd_sc_hd__sdfxtp_1 abstract view
.subckt sky130_fd_sc_hd__sdfxtp_1 D Q SCD SCE CLK VGND VNB VPB VPWR
.ends

* Black-box entry subcircuit for sky130_fd_sc_hd__or2_1 abstract view
.subckt sky130_fd_sc_hd__or2_1 A B X VGND VNB VPB VPWR
.ends

* Black-box entry subcircuit for sky130_fd_sc_hd__clkbuf_16 abstract view
.subckt sky130_fd_sc_hd__clkbuf_16 A X VGND VNB VPB VPWR
.ends

.subckt grid_clb SC_IN_BOT SC_IN_TOP SC_OUT_BOT SC_OUT_TOP Test_en bottom_width_0_height_0__pin_50_
+ bottom_width_0_height_0__pin_51_ ccff_head ccff_tail clk left_width_0_height_0__pin_52_
+ prog_clk right_width_0_height_0__pin_16_ right_width_0_height_0__pin_17_ right_width_0_height_0__pin_18_
+ right_width_0_height_0__pin_19_ right_width_0_height_0__pin_20_ right_width_0_height_0__pin_21_
+ right_width_0_height_0__pin_22_ right_width_0_height_0__pin_23_ right_width_0_height_0__pin_24_
+ right_width_0_height_0__pin_25_ right_width_0_height_0__pin_26_ right_width_0_height_0__pin_27_
+ right_width_0_height_0__pin_28_ right_width_0_height_0__pin_29_ right_width_0_height_0__pin_30_
+ right_width_0_height_0__pin_31_ right_width_0_height_0__pin_42_lower right_width_0_height_0__pin_42_upper
+ right_width_0_height_0__pin_43_lower right_width_0_height_0__pin_43_upper right_width_0_height_0__pin_44_lower
+ right_width_0_height_0__pin_44_upper right_width_0_height_0__pin_45_lower right_width_0_height_0__pin_45_upper
+ right_width_0_height_0__pin_46_lower right_width_0_height_0__pin_46_upper right_width_0_height_0__pin_47_lower
+ right_width_0_height_0__pin_47_upper right_width_0_height_0__pin_48_lower right_width_0_height_0__pin_48_upper
+ right_width_0_height_0__pin_49_lower right_width_0_height_0__pin_49_upper top_width_0_height_0__pin_0_
+ top_width_0_height_0__pin_10_ top_width_0_height_0__pin_11_ top_width_0_height_0__pin_12_
+ top_width_0_height_0__pin_13_ top_width_0_height_0__pin_14_ top_width_0_height_0__pin_15_
+ top_width_0_height_0__pin_1_ top_width_0_height_0__pin_2_ top_width_0_height_0__pin_32_
+ top_width_0_height_0__pin_33_ top_width_0_height_0__pin_34_lower top_width_0_height_0__pin_34_upper
+ top_width_0_height_0__pin_35_lower top_width_0_height_0__pin_35_upper top_width_0_height_0__pin_36_lower
+ top_width_0_height_0__pin_36_upper top_width_0_height_0__pin_37_lower top_width_0_height_0__pin_37_upper
+ top_width_0_height_0__pin_38_lower top_width_0_height_0__pin_38_upper top_width_0_height_0__pin_39_lower
+ top_width_0_height_0__pin_39_upper top_width_0_height_0__pin_3_ top_width_0_height_0__pin_40_lower
+ top_width_0_height_0__pin_40_upper top_width_0_height_0__pin_41_lower top_width_0_height_0__pin_41_upper
+ top_width_0_height_0__pin_4_ top_width_0_height_0__pin_5_ top_width_0_height_0__pin_6_
+ top_width_0_height_0__pin_7_ top_width_0_height_0__pin_8_ top_width_0_height_0__pin_9_
+ VPWR VGND
XFILLER_27_406 VGND VGND VPWR VPWR sky130_fd_sc_hd__fill_1
XFILLER_62_280 VGND VGND VPWR VPWR sky130_fd_sc_hd__decap_12
XFILLER_52_29 VGND VGND VPWR VPWR sky130_fd_sc_hd__fill_2
XFILLER_22_166 VGND VGND VPWR VPWR sky130_fd_sc_hd__decap_12
XANTENNA_ltile_clb_mode_0.ltile_clb_mode_fle_0.ltile_clb_physical__fabric_0.ltile_clb__frac_logic_0.ltile_clb_frac_lut4_0.frac_lut4_0_.frac_lut4_mux_0_.mux_l1_in_1__S
+ ltile_clb_mode_0.ltile_clb_mode_fle_0.ltile_clb_physical__fabric_0.ltile_clb__frac_logic_0.ltile_clb_frac_lut4_0.frac_lut4_0_.sky130_fd_sc_hd__buf_2_0_/X
+ VGND VGND VPWR VPWR sky130_fd_sc_hd__diode_2
XANTENNA_ltile_clb_mode_0.ltile_clb_mode_fle_5.ltile_clb_physical__fabric_0.ltile_clb__frac_logic_0.ltile_clb_frac_lut4_0.frac_lut4_0_.frac_lut4_mux_0_.mux_l4_in_0__S
+ ltile_clb_mode_0.ltile_clb_mode_fle_5.ltile_clb_physical__fabric_0.ltile_clb__frac_logic_0.ltile_clb_frac_lut4_0.frac_lut4_0_.sky130_fd_sc_hd__buf_2_3_/X
+ VGND VGND VPWR VPWR sky130_fd_sc_hd__diode_2
XFILLER_18_406 VGND VGND VPWR VPWR sky130_fd_sc_hd__fill_1
XFILLER_45_258 VGND VGND VPWR VPWR sky130_fd_sc_hd__fill_2
XFILLER_42_62 VGND VGND VPWR VPWR sky130_fd_sc_hd__fill_1
XFILLER_5_310 VGND VGND VPWR VPWR sky130_fd_sc_hd__decap_12
XFILLER_9_159 VGND VGND VPWR VPWR sky130_fd_sc_hd__decap_12
XFILLER_5_387 VGND VGND VPWR VPWR sky130_fd_sc_hd__decap_12
X_83_ top_width_0_height_0__pin_41_lower top_width_0_height_0__pin_41_upper VGND VGND
+ VPWR VPWR sky130_fd_sc_hd__buf_2
Xltile_clb_mode_0.ltile_clb_mode_fle_5.ltile_clb_physical__fabric_0.ltile_clb__frac_logic_0.ltile_clb_frac_lut4_0.frac_lut4_0_.sky130_fd_sc_hd__buf_2_3_
+ ltile_clb_mode_0.ltile_clb_mode_fle_5.ltile_clb_physical__fabric_0.ltile_clb__frac_logic_0.ltile_clb_frac_lut4_0.frac_lut4_0_.sky130_fd_sc_hd__or2_1_0_/X
+ ltile_clb_mode_0.ltile_clb_mode_fle_5.ltile_clb_physical__fabric_0.ltile_clb__frac_logic_0.ltile_clb_frac_lut4_0.frac_lut4_0_.sky130_fd_sc_hd__buf_2_3_/X
+ VGND VGND VPWR VPWR sky130_fd_sc_hd__buf_2
Xltile_clb_mode_0.ltile_clb_mode_fle_7.ltile_clb_physical__fabric_0.mux_fabric_out_1.mux_l2_in_0_
+ _49_/HI ltile_clb_mode_0.ltile_clb_mode_fle_7.ltile_clb_physical__fabric_0.mux_fabric_out_1.mux_l1_in_0_/X
+ ltile_clb_mode_0.ltile_clb_mode_fle_7.ltile_clb_physical__fabric_0.mux_fabric_out_1.mux_l2_in_0_/S
+ right_width_0_height_0__pin_48_lower VGND VGND VPWR VPWR sky130_fd_sc_hd__mux2_1
XFILLER_59_306 VGND VGND VPWR VPWR sky130_fd_sc_hd__decap_12
XFILLER_63_39 VGND VGND VPWR VPWR sky130_fd_sc_hd__decap_12
XFILLER_42_239 VGND VGND VPWR VPWR sky130_fd_sc_hd__fill_1
XFILLER_42_206 VGND VGND VPWR VPWR sky130_fd_sc_hd__fill_2
Xltile_clb_mode_0.ltile_clb_mode_fle_4.ltile_clb_physical__fabric_0.ltile_clb__frac_logic_0.ltile_clb_frac_lut4_0.frac_lut4_sky130_fd_sc_hd__dfxtp_1_mem.sky130_fd_sc_hd__dfxtp_1_5_
+ ltile_clb_mode_0.ltile_clb_mode_fle_4.ltile_clb_physical__fabric_0.ltile_clb__frac_logic_0.ltile_clb_frac_lut4_0.frac_lut4_0_.frac_lut4_mux_0_.mux_l1_in_2_/A1
+ ltile_clb_mode_0.ltile_clb_mode_fle_4.ltile_clb_physical__fabric_0.ltile_clb__frac_logic_0.ltile_clb_frac_lut4_0.frac_lut4_0_.frac_lut4_mux_0_.mux_l1_in_2_/A0
+ clkbuf_4_10_0_prog_clk/X VGND VGND VPWR VPWR sky130_fd_sc_hd__dfxtp_1
XFILLER_50_283 VGND VGND VPWR VPWR sky130_fd_sc_hd__decap_12
XANTENNA_ltile_clb_mode_0.ltile_clb_mode_fle_1.ltile_clb_physical__fabric_0.ltile_clb__frac_logic_0.ltile_clb_frac_lut4_0.frac_lut4_0_.frac_lut4_mux_0_.mux_l1_in_2__A1
+ ltile_clb_mode_0.ltile_clb_mode_fle_1.ltile_clb_physical__fabric_0.ltile_clb__frac_logic_0.ltile_clb_frac_lut4_0.frac_lut4_0_.frac_lut4_mux_0_.mux_l1_in_2_/A1
+ VGND VGND VPWR VPWR sky130_fd_sc_hd__diode_2
XFILLER_6_129 VGND VGND VPWR VPWR sky130_fd_sc_hd__decap_12
XFILLER_12_32 VGND VGND VPWR VPWR sky130_fd_sc_hd__decap_12
XANTENNA_ltile_clb_mode_0.ltile_clb_mode_fle_0.ltile_clb_physical__fabric_0.ltile_clb__frac_logic_0.ltile_clb_frac_lut4_0.frac_lut4_sky130_fd_sc_hd__dfxtp_1_mem.sky130_fd_sc_hd__dfxtp_1_9__CLK
+ clkbuf_4_5_0_prog_clk/X VGND VGND VPWR VPWR sky130_fd_sc_hd__diode_2
XFILLER_2_324 VGND VGND VPWR VPWR sky130_fd_sc_hd__decap_12
XFILLER_58_361 VGND VGND VPWR VPWR sky130_fd_sc_hd__decap_12
XFILLER_37_62 VGND VGND VPWR VPWR sky130_fd_sc_hd__decap_12
XFILLER_37_51 VGND VGND VPWR VPWR sky130_fd_sc_hd__decap_8
XFILLER_18_247 VGND VGND VPWR VPWR sky130_fd_sc_hd__fill_2
XFILLER_26_280 VGND VGND VPWR VPWR sky130_fd_sc_hd__fill_1
XANTENNA_ltile_clb_mode_0.ltile_clb_mode_fle_5.ltile_clb_physical__fabric_0.ltile_clb__frac_logic_0.ltile_clb_frac_lut4_0.frac_lut4_0_.frac_lut4_mux_0_.mux_l1_in_5__A1
+ ltile_clb_mode_0.ltile_clb_mode_fle_5.ltile_clb_physical__fabric_0.ltile_clb__frac_logic_0.ltile_clb_frac_lut4_0.frac_lut4_0_.frac_lut4_mux_0_.mux_l1_in_5_/A1
+ VGND VGND VPWR VPWR sky130_fd_sc_hd__diode_2
XANTENNA_ltile_clb_mode_0.ltile_clb_mode_fle_6.ltile_clb_physical__fabric_0.ltile_clb__frac_logic_0.ltile_clb_frac_lut4_0.frac_lut4_sky130_fd_sc_hd__dfxtp_1_mem.sky130_fd_sc_hd__dfxtp_1_0__CLK
+ clkbuf_4_9_0_prog_clk/X VGND VGND VPWR VPWR sky130_fd_sc_hd__diode_2
XFILLER_5_184 VGND VGND VPWR VPWR sky130_fd_sc_hd__decap_12
XFILLER_64_397 VGND VGND VPWR VPWR sky130_fd_sc_hd__decap_6
XFILLER_64_342 VGND VGND VPWR VPWR sky130_fd_sc_hd__decap_12
X_66_ SC_OUT_BOT bottom_width_0_height_0__pin_50_ VGND VGND VPWR VPWR sky130_fd_sc_hd__buf_2
Xltile_clb_mode_0.ltile_clb_mode_fle_0.ltile_clb_physical__fabric_0.ltile_clb__frac_logic_0.ltile_clb_frac_lut4_0.frac_lut4_0_.sky130_fd_sc_hd__buf_2_1_
+ top_width_0_height_0__pin_1_ ltile_clb_mode_0.ltile_clb_mode_fle_0.ltile_clb_physical__fabric_0.ltile_clb__frac_logic_0.ltile_clb_frac_lut4_0.frac_lut4_0_.sky130_fd_sc_hd__buf_2_1_/X
+ VGND VGND VPWR VPWR sky130_fd_sc_hd__buf_2
XFILLER_15_228 VGND VGND VPWR VPWR sky130_fd_sc_hd__fill_1
XANTENNA_ltile_clb_mode_0.ltile_clb_mode_fle_7.ltile_clb_physical__fabric_0.ltile_clb__frac_logic_0.ltile_clb_frac_lut4_0.frac_lut4_sky130_fd_sc_hd__dfxtp_1_mem.sky130_fd_sc_hd__dfxtp_1_16__CLK
+ clkbuf_4_15_0_prog_clk/X VGND VGND VPWR VPWR sky130_fd_sc_hd__diode_2
XFILLER_23_86 VGND VGND VPWR VPWR sky130_fd_sc_hd__decap_12
XFILLER_23_294 VGND VGND VPWR VPWR sky130_fd_sc_hd__fill_2
XFILLER_2_154 VGND VGND VPWR VPWR sky130_fd_sc_hd__decap_12
XFILLER_46_386 VGND VGND VPWR VPWR sky130_fd_sc_hd__fill_2
XFILLER_61_367 VGND VGND VPWR VPWR sky130_fd_sc_hd__decap_6
XFILLER_50_3 VGND VGND VPWR VPWR sky130_fd_sc_hd__decap_8
XANTENNA_ltile_clb_mode_0.ltile_clb_mode_fle_7.ltile_clb_physical__fabric_0.ltile_clb__frac_logic_0.ltile_clb_frac_lut4_0.frac_lut4_sky130_fd_sc_hd__dfxtp_1_mem.sky130_fd_sc_hd__dfxtp_1_15__D
+ ltile_clb_mode_0.ltile_clb_mode_fle_7.ltile_clb_physical__fabric_0.ltile_clb__frac_logic_0.ltile_clb_frac_lut4_0.frac_lut4_0_.frac_lut4_mux_0_.mux_l1_in_7_/A1
+ VGND VGND VPWR VPWR sky130_fd_sc_hd__diode_2
XANTENNA_clkbuf_2_1_0_prog_clk_A clkbuf_2_1_0_prog_clk/A VGND VGND VPWR VPWR sky130_fd_sc_hd__diode_2
XANTENNA_ltile_clb_mode_0.ltile_clb_mode_fle_1.ltile_clb_physical__fabric_0.ltile_clb__frac_logic_0.ltile_clb_frac_lut4_0.frac_lut4_0_.frac_lut4_mux_0_.mux_l2_in_1__A1
+ ltile_clb_mode_0.ltile_clb_mode_fle_1.ltile_clb_physical__fabric_0.ltile_clb__frac_logic_0.ltile_clb_frac_lut4_0.frac_lut4_0_.frac_lut4_mux_0_.mux_l1_in_2_/X
+ VGND VGND VPWR VPWR sky130_fd_sc_hd__diode_2
Xltile_clb_mode_0.ltile_clb_mode_fle_7.ltile_clb_physical__fabric_0.ltile_clb__frac_logic_0.ltile_clb_frac_lut4_0.frac_lut4_0_.frac_lut4_mux_0_.mux_l2_in_0_
+ ltile_clb_mode_0.ltile_clb_mode_fle_7.ltile_clb_physical__fabric_0.ltile_clb__frac_logic_0.ltile_clb_frac_lut4_0.frac_lut4_0_.frac_lut4_mux_0_.mux_l1_in_1_/X
+ ltile_clb_mode_0.ltile_clb_mode_fle_7.ltile_clb_physical__fabric_0.ltile_clb__frac_logic_0.ltile_clb_frac_lut4_0.frac_lut4_0_.frac_lut4_mux_0_.mux_l1_in_0_/X
+ ltile_clb_mode_0.ltile_clb_mode_fle_7.ltile_clb_physical__fabric_0.ltile_clb__frac_logic_0.ltile_clb_frac_lut4_0.frac_lut4_0_.sky130_fd_sc_hd__buf_2_1_/X
+ ltile_clb_mode_0.ltile_clb_mode_fle_7.ltile_clb_physical__fabric_0.ltile_clb__frac_logic_0.ltile_clb_frac_lut4_0.frac_lut4_0_.frac_lut4_mux_0_.mux_l2_in_0_/X
+ VGND VGND VPWR VPWR sky130_fd_sc_hd__mux2_1
XFILLER_52_389 VGND VGND VPWR VPWR sky130_fd_sc_hd__decap_8
XFILLER_52_312 VGND VGND VPWR VPWR sky130_fd_sc_hd__decap_12
X_49_ _49_/HI _49_/LO VGND VGND VPWR VPWR sky130_fd_sc_hd__conb_1
Xclkbuf_3_4_0_prog_clk clkbuf_2_2_0_prog_clk/X clkbuf_4_9_0_prog_clk/A VGND VGND VPWR
+ VPWR sky130_fd_sc_hd__clkbuf_1
XFILLER_55_161 VGND VGND VPWR VPWR sky130_fd_sc_hd__decap_3
XFILLER_43_301 VGND VGND VPWR VPWR sky130_fd_sc_hd__fill_2
XFILLER_28_375 VGND VGND VPWR VPWR sky130_fd_sc_hd__decap_3
XFILLER_28_320 VGND VGND VPWR VPWR sky130_fd_sc_hd__decap_8
XPHY_554 VGND VPWR sky130_fd_sc_hd__tapvpwrvgnd_1
XPHY_543 VGND VPWR sky130_fd_sc_hd__tapvpwrvgnd_1
XPHY_532 VGND VPWR sky130_fd_sc_hd__tapvpwrvgnd_1
XPHY_521 VGND VPWR sky130_fd_sc_hd__tapvpwrvgnd_1
XPHY_510 VGND VPWR sky130_fd_sc_hd__tapvpwrvgnd_1
XFILLER_43_378 VGND VGND VPWR VPWR sky130_fd_sc_hd__fill_2
XFILLER_43_367 VGND VGND VPWR VPWR sky130_fd_sc_hd__decap_4
Xltile_clb_mode_0.ltile_clb_mode_fle_4.ltile_clb_physical__fabric_0.ltile_clb__frac_logic_0.ltile_clb_frac_lut4_0.frac_lut4_0_.frac_lut4_mux_0_.mux_l1_in_6_
+ ltile_clb_mode_0.ltile_clb_mode_fle_4.ltile_clb_physical__fabric_0.ltile_clb__frac_logic_0.ltile_clb_frac_lut4_0.frac_lut4_0_.frac_lut4_mux_0_.mux_l1_in_6_/A0
+ ltile_clb_mode_0.ltile_clb_mode_fle_4.ltile_clb_physical__fabric_0.ltile_clb__frac_logic_0.ltile_clb_frac_lut4_0.frac_lut4_0_.frac_lut4_mux_0_.mux_l1_in_6_/A1
+ ltile_clb_mode_0.ltile_clb_mode_fle_4.ltile_clb_physical__fabric_0.ltile_clb__frac_logic_0.ltile_clb_frac_lut4_0.frac_lut4_0_.sky130_fd_sc_hd__buf_2_0_/X
+ ltile_clb_mode_0.ltile_clb_mode_fle_4.ltile_clb_physical__fabric_0.ltile_clb__frac_logic_0.ltile_clb_frac_lut4_0.frac_lut4_0_.frac_lut4_mux_0_.mux_l1_in_6_/X
+ VGND VGND VPWR VPWR sky130_fd_sc_hd__mux2_1
XFILLER_11_220 VGND VGND VPWR VPWR sky130_fd_sc_hd__decap_12
XANTENNA_ltile_clb_mode_0.ltile_clb_mode_fle_5.ltile_clb_physical__fabric_0.ltile_clb__frac_logic_0.ltile_clb_frac_lut4_0.frac_lut4_sky130_fd_sc_hd__dfxtp_1_mem.sky130_fd_sc_hd__dfxtp_1_3__D
+ ltile_clb_mode_0.ltile_clb_mode_fle_5.ltile_clb_physical__fabric_0.ltile_clb__frac_logic_0.ltile_clb_frac_lut4_0.frac_lut4_0_.frac_lut4_mux_0_.mux_l1_in_1_/A1
+ VGND VGND VPWR VPWR sky130_fd_sc_hd__diode_2
Xltile_clb_mode_0.ltile_clb_mode_fle_0.ltile_clb_physical__fabric_0.ltile_clb__frac_logic_0.ltile_clb_frac_lut4_0.frac_lut4_sky130_fd_sc_hd__dfxtp_1_mem.sky130_fd_sc_hd__dfxtp_1_0_
+ ccff_head ltile_clb_mode_0.ltile_clb_mode_fle_0.ltile_clb_physical__fabric_0.ltile_clb__frac_logic_0.ltile_clb_frac_lut4_0.frac_lut4_0_.frac_lut4_mux_0_.mux_l1_in_0_/A1
+ clkbuf_4_4_0_prog_clk/X VGND VGND VPWR VPWR sky130_fd_sc_hd__dfxtp_1
XFILLER_7_257 VGND VGND VPWR VPWR sky130_fd_sc_hd__decap_12
XFILLER_11_297 VGND VGND VPWR VPWR sky130_fd_sc_hd__fill_2
XFILLER_46_183 VGND VGND VPWR VPWR sky130_fd_sc_hd__decap_12
XFILLER_34_301 VGND VGND VPWR VPWR sky130_fd_sc_hd__decap_4
XANTENNA_ltile_clb_mode_0.ltile_clb_mode_fle_3.ltile_clb_physical__fabric_0.ltile_clb__frac_logic_0.ltile_clb_frac_lut4_0.frac_lut4_0_.frac_lut4_mux_0_.mux_l1_in_5__A0
+ ltile_clb_mode_0.ltile_clb_mode_fle_3.ltile_clb_physical__fabric_0.ltile_clb__frac_logic_0.ltile_clb_frac_lut4_0.frac_lut4_0_.frac_lut4_mux_0_.mux_l1_in_5_/A0
+ VGND VGND VPWR VPWR sky130_fd_sc_hd__diode_2
XFILLER_25_301 VGND VGND VPWR VPWR sky130_fd_sc_hd__fill_2
XANTENNA_ltile_clb_mode_0.ltile_clb_mode_fle_1.ltile_clb_physical__fabric_0.mem_fabric_out_1.sky130_fd_sc_hd__dfxtp_1_1__CLK
+ clkbuf_4_7_0_prog_clk/X VGND VGND VPWR VPWR sky130_fd_sc_hd__diode_2
XANTENNA_ltile_clb_mode_0.ltile_clb_mode_fle_0.ltile_clb_physical__fabric_0.ltile_clb__frac_logic_0.ltile_clb_frac_lut4_0.frac_lut4_0_.frac_lut4_mux_0_.mux_l1_in_4__S
+ ltile_clb_mode_0.ltile_clb_mode_fle_0.ltile_clb_physical__fabric_0.ltile_clb__frac_logic_0.ltile_clb_frac_lut4_0.frac_lut4_0_.sky130_fd_sc_hd__buf_2_0_/X
+ VGND VGND VPWR VPWR sky130_fd_sc_hd__diode_2
Xltile_clb_mode_0.ltile_clb_mode_fle_7.ltile_clb_physical__fabric_0.ltile_clb__frac_logic_0.ltile_clb_frac_lut4_0.frac_lut4_sky130_fd_sc_hd__dfxtp_1_mem.sky130_fd_sc_hd__dfxtp_1_11_
+ ltile_clb_mode_0.ltile_clb_mode_fle_7.ltile_clb_physical__fabric_0.ltile_clb__frac_logic_0.ltile_clb_frac_lut4_0.frac_lut4_0_.frac_lut4_mux_0_.mux_l1_in_5_/A1
+ ltile_clb_mode_0.ltile_clb_mode_fle_7.ltile_clb_physical__fabric_0.ltile_clb__frac_logic_0.ltile_clb_frac_lut4_0.frac_lut4_0_.frac_lut4_mux_0_.mux_l1_in_5_/A0
+ clkbuf_4_15_0_prog_clk/X VGND VGND VPWR VPWR sky130_fd_sc_hd__dfxtp_1
XFILLER_25_389 VGND VGND VPWR VPWR sky130_fd_sc_hd__fill_2
XFILLER_25_367 VGND VGND VPWR VPWR sky130_fd_sc_hd__decap_4
XFILLER_4_227 VGND VGND VPWR VPWR sky130_fd_sc_hd__decap_12
XFILLER_20_32 VGND VGND VPWR VPWR sky130_fd_sc_hd__decap_12
XFILLER_29_74 VGND VGND VPWR VPWR sky130_fd_sc_hd__decap_12
XANTENNA_ltile_clb_mode_0.ltile_clb_mode_fle_5.ltile_clb_physical__fabric_0.ltile_clb__frac_logic_0.ltile_clb_frac_lut4_0.frac_lut4_sky130_fd_sc_hd__dfxtp_1_mem.sky130_fd_sc_hd__dfxtp_1_2__CLK
+ clkbuf_4_10_0_prog_clk/X VGND VGND VPWR VPWR sky130_fd_sc_hd__diode_2
XANTENNA_ltile_clb_mode_0.ltile_clb_mode_fle_1.ltile_clb_physical__fabric_0.ltile_clb__frac_logic_0.ltile_clb_frac_lut4_0.frac_lut4_0_.frac_lut4_mux_0_.mux_l3_in_0__A1
+ ltile_clb_mode_0.ltile_clb_mode_fle_1.ltile_clb_physical__fabric_0.ltile_clb__frac_logic_0.ltile_clb_frac_lut4_0.frac_lut4_0_.frac_lut4_mux_0_.mux_l3_in_0_/A1
+ VGND VGND VPWR VPWR sky130_fd_sc_hd__diode_2
XFILLER_45_73 VGND VGND VPWR VPWR sky130_fd_sc_hd__fill_2
XFILLER_45_62 VGND VGND VPWR VPWR sky130_fd_sc_hd__decap_4
XFILLER_43_175 VGND VGND VPWR VPWR sky130_fd_sc_hd__decap_8
XFILLER_43_142 VGND VGND VPWR VPWR sky130_fd_sc_hd__fill_2
XPHY_395 VGND VPWR sky130_fd_sc_hd__tapvpwrvgnd_1
XPHY_384 VGND VPWR sky130_fd_sc_hd__tapvpwrvgnd_1
XPHY_373 VGND VPWR sky130_fd_sc_hd__tapvpwrvgnd_1
XANTENNA_ltile_clb_mode_0.ltile_clb_mode_fle_7.ltile_clb_physical__fabric_0.mem_fabric_out_1.sky130_fd_sc_hd__dfxtp_1_1__D
+ ltile_clb_mode_0.ltile_clb_mode_fle_7.ltile_clb_physical__fabric_0.mux_fabric_out_1.mux_l1_in_0_/S
+ VGND VGND VPWR VPWR sky130_fd_sc_hd__diode_2
XPHY_362 VGND VPWR sky130_fd_sc_hd__tapvpwrvgnd_1
XPHY_351 VGND VPWR sky130_fd_sc_hd__tapvpwrvgnd_1
XFILLER_31_348 VGND VGND VPWR VPWR sky130_fd_sc_hd__fill_2
XPHY_340 VGND VPWR sky130_fd_sc_hd__tapvpwrvgnd_1
Xltile_clb_mode_0.ltile_clb_mode_fle_7.ltile_clb_physical__fabric_0.ltile_clb__frac_logic_0.ltile_clb_frac_lut4_0.frac_lut4_0_.frac_lut4_mux_0_.mux_l1_in_1_
+ ltile_clb_mode_0.ltile_clb_mode_fle_7.ltile_clb_physical__fabric_0.ltile_clb__frac_logic_0.ltile_clb_frac_lut4_0.frac_lut4_0_.frac_lut4_mux_0_.mux_l1_in_1_/A0
+ ltile_clb_mode_0.ltile_clb_mode_fle_7.ltile_clb_physical__fabric_0.ltile_clb__frac_logic_0.ltile_clb_frac_lut4_0.frac_lut4_0_.frac_lut4_mux_0_.mux_l1_in_1_/A1
+ ltile_clb_mode_0.ltile_clb_mode_fle_7.ltile_clb_physical__fabric_0.ltile_clb__frac_logic_0.ltile_clb_frac_lut4_0.frac_lut4_0_.sky130_fd_sc_hd__buf_2_0_/X
+ ltile_clb_mode_0.ltile_clb_mode_fle_7.ltile_clb_physical__fabric_0.ltile_clb__frac_logic_0.ltile_clb_frac_lut4_0.frac_lut4_0_.frac_lut4_mux_0_.mux_l1_in_1_/X
+ VGND VGND VPWR VPWR sky130_fd_sc_hd__mux2_1
XANTENNA_ltile_clb_mode_0.ltile_clb_mode_fle_6.ltile_clb_physical__fabric_0.ltile_clb__frac_logic_0.ltile_clb_frac_lut4_0.frac_lut4_0_.frac_lut4_mux_0_.sky130_fd_sc_hd__buf_2_2__A
+ ltile_clb_mode_0.ltile_clb_mode_fle_6.ltile_clb_physical__fabric_0.ltile_clb__frac_logic_0.ltile_clb_frac_lut4_0.frac_lut4_0_.frac_lut4_mux_0_.mux_l4_in_0_/X
+ VGND VGND VPWR VPWR sky130_fd_sc_hd__diode_2
XANTENNA_ltile_clb_mode_0.ltile_clb_mode_fle_6.ltile_clb_physical__fabric_0.ltile_clb__frac_logic_0.ltile_clb_frac_lut4_0.frac_lut4_0_.frac_lut4_mux_0_.mux_l1_in_0__A1
+ ltile_clb_mode_0.ltile_clb_mode_fle_6.ltile_clb_physical__fabric_0.ltile_clb__frac_logic_0.ltile_clb_frac_lut4_0.frac_lut4_0_.frac_lut4_mux_0_.mux_l1_in_0_/A1
+ VGND VGND VPWR VPWR sky130_fd_sc_hd__diode_2
XFILLER_6_56 VGND VGND VPWR VPWR sky130_fd_sc_hd__decap_12
XFILLER_3_293 VGND VGND VPWR VPWR sky130_fd_sc_hd__decap_12
XANTENNA_ltile_clb_mode_0.ltile_clb_mode_fle_1.ltile_clb_physical__fabric_0.ltile_clb__frac_logic_0.ltile_clb_frac_lut4_0.frac_lut4_0_.frac_lut4_mux_0_.mux_l1_in_1__S
+ ltile_clb_mode_0.ltile_clb_mode_fle_1.ltile_clb_physical__fabric_0.ltile_clb__frac_logic_0.ltile_clb_frac_lut4_0.frac_lut4_0_.sky130_fd_sc_hd__buf_2_0_/X
+ VGND VGND VPWR VPWR sky130_fd_sc_hd__diode_2
XANTENNA_ltile_clb_mode_0.ltile_clb_mode_fle_6.ltile_clb_physical__fabric_0.ltile_clb__frac_logic_0.ltile_clb_frac_lut4_0.frac_lut4_0_.frac_lut4_mux_0_.mux_l4_in_0__S
+ ltile_clb_mode_0.ltile_clb_mode_fle_6.ltile_clb_physical__fabric_0.ltile_clb__frac_logic_0.ltile_clb_frac_lut4_0.frac_lut4_0_.sky130_fd_sc_hd__buf_2_3_/X
+ VGND VGND VPWR VPWR sky130_fd_sc_hd__diode_2
XFILLER_13_3 VGND VGND VPWR VPWR sky130_fd_sc_hd__decap_12
XFILLER_34_186 VGND VGND VPWR VPWR sky130_fd_sc_hd__fill_2
XFILLER_22_315 VGND VGND VPWR VPWR sky130_fd_sc_hd__fill_2
XFILLER_22_337 VGND VGND VPWR VPWR sky130_fd_sc_hd__fill_1
XFILLER_22_359 VGND VGND VPWR VPWR sky130_fd_sc_hd__decap_3
XFILLER_1_208 VGND VGND VPWR VPWR sky130_fd_sc_hd__decap_12
XFILLER_13_304 VGND VGND VPWR VPWR sky130_fd_sc_hd__fill_1
XANTENNA_ltile_clb_mode_0.ltile_clb_mode_fle_1.ltile_clb_physical__fabric_0.ltile_clb__frac_logic_0.mux_frac_logic_out_0.mux_l2_in_0__A1
+ ltile_clb_mode_0.ltile_clb_mode_fle_1.ltile_clb_physical__fabric_0.ltile_clb__frac_logic_0.mux_frac_logic_out_0.mux_l1_in_0_/X
+ VGND VGND VPWR VPWR sky130_fd_sc_hd__diode_2
XFILLER_40_189 VGND VGND VPWR VPWR sky130_fd_sc_hd__fill_1
XFILLER_40_145 VGND VGND VPWR VPWR sky130_fd_sc_hd__decap_4
Xltile_clb_mode_0.ltile_clb_mode_fle_2.ltile_clb_physical__fabric_0.ltile_clb__frac_logic_0.mem_frac_logic_out_0.sky130_fd_sc_hd__dfxtp_1_0_
+ ltile_clb_mode_0.ltile_clb_mode_fle_2.ltile_clb_physical__fabric_0.ltile_clb__frac_logic_0.mem_frac_logic_out_0.sky130_fd_sc_hd__dfxtp_1_0_/D
+ ltile_clb_mode_0.ltile_clb_mode_fle_2.ltile_clb_physical__fabric_0.ltile_clb__frac_logic_0.mux_frac_logic_out_0.mux_l1_in_0_/S
+ clkbuf_4_3_0_prog_clk/X VGND VGND VPWR VPWR sky130_fd_sc_hd__dfxtp_1
XANTENNA_ltile_clb_mode_0.ltile_clb_mode_fle_6.ltile_clb_physical__fabric_0.ltile_clb__ff_0.sky130_fd_sc_hd__sdfxtp_1_0__D
+ ltile_clb_mode_0.ltile_clb_mode_fle_6.ltile_clb_physical__fabric_0.mux_ff_0_D_0.mux_l2_in_0_/X
+ VGND VGND VPWR VPWR sky130_fd_sc_hd__diode_2
XFILLER_13_359 VGND VGND VPWR VPWR sky130_fd_sc_hd__decap_4
XFILLER_15_98 VGND VGND VPWR VPWR sky130_fd_sc_hd__decap_12
XFILLER_21_370 VGND VGND VPWR VPWR sky130_fd_sc_hd__decap_12
Xltile_clb_mode_0.ltile_clb_mode_fle_0.ltile_clb_physical__fabric_0.ltile_clb__frac_logic_0.ltile_clb_frac_lut4_0.frac_lut4_0_.frac_lut4_mux_0_.mux_l1_in_0_
+ ltile_clb_mode_0.ltile_clb_mode_fle_0.ltile_clb_physical__fabric_0.ltile_clb__frac_logic_0.ltile_clb_frac_lut4_0.frac_lut4_0_.frac_lut4_mux_0_.mux_l1_in_0_/A0
+ ltile_clb_mode_0.ltile_clb_mode_fle_0.ltile_clb_physical__fabric_0.ltile_clb__frac_logic_0.ltile_clb_frac_lut4_0.frac_lut4_0_.frac_lut4_mux_0_.mux_l1_in_0_/A1
+ ltile_clb_mode_0.ltile_clb_mode_fle_0.ltile_clb_physical__fabric_0.ltile_clb__frac_logic_0.ltile_clb_frac_lut4_0.frac_lut4_0_.sky130_fd_sc_hd__buf_2_0_/X
+ ltile_clb_mode_0.ltile_clb_mode_fle_0.ltile_clb_physical__fabric_0.ltile_clb__frac_logic_0.ltile_clb_frac_lut4_0.frac_lut4_0_.frac_lut4_mux_0_.mux_l1_in_0_/X
+ VGND VGND VPWR VPWR sky130_fd_sc_hd__mux2_1
XFILLER_31_86 VGND VGND VPWR VPWR sky130_fd_sc_hd__decap_12
XFILLER_0_230 VGND VGND VPWR VPWR sky130_fd_sc_hd__decap_12
XFILLER_56_72 VGND VGND VPWR VPWR sky130_fd_sc_hd__decap_8
XFILLER_48_267 VGND VGND VPWR VPWR sky130_fd_sc_hd__fill_2
XFILLER_31_123 VGND VGND VPWR VPWR sky130_fd_sc_hd__decap_12
XPHY_170 VGND VPWR sky130_fd_sc_hd__tapvpwrvgnd_1
XPHY_181 VGND VPWR sky130_fd_sc_hd__tapvpwrvgnd_1
XPHY_192 VGND VPWR sky130_fd_sc_hd__tapvpwrvgnd_1
XFILLER_39_234 VGND VGND VPWR VPWR sky130_fd_sc_hd__decap_8
XFILLER_54_215 VGND VGND VPWR VPWR sky130_fd_sc_hd__fill_2
XFILLER_39_245 VGND VGND VPWR VPWR sky130_fd_sc_hd__decap_4
XFILLER_62_292 VGND VGND VPWR VPWR sky130_fd_sc_hd__decap_12
XFILLER_52_19 VGND VGND VPWR VPWR sky130_fd_sc_hd__fill_1
XFILLER_22_178 VGND VGND VPWR VPWR sky130_fd_sc_hd__decap_12
XANTENNA_ltile_clb_mode_0.ltile_clb_mode_fle_6.ltile_clb_physical__fabric_0.mux_fabric_out_1.mux_l2_in_0__A0
+ _45_/HI VGND VGND VPWR VPWR sky130_fd_sc_hd__diode_2
XANTENNA_ltile_clb_mode_0.ltile_clb_mode_fle_6.ltile_clb_physical__fabric_0.ltile_clb__ff_1.sky130_fd_sc_hd__sdfxtp_1_0__SCD
+ ltile_clb_mode_0.ltile_clb_mode_fle_6.ltile_clb_physical__fabric_0.mux_fabric_out_0.mux_l1_in_0_/A1
+ VGND VGND VPWR VPWR sky130_fd_sc_hd__diode_2
XFILLER_45_226 VGND VGND VPWR VPWR sky130_fd_sc_hd__fill_2
Xltile_clb_mode_0.ltile_clb_mode_fle_2.ltile_clb_physical__fabric_0.ltile_clb__frac_logic_0.mux_frac_logic_out_0.mux_l1_in_0_
+ ltile_clb_mode_0.ltile_clb_mode_fle_2.ltile_clb_physical__fabric_0.ltile_clb__frac_logic_0.mux_frac_logic_out_0.mux_l1_in_0_/A0
+ ltile_clb_mode_0.ltile_clb_mode_fle_2.ltile_clb_physical__fabric_0.ltile_clb__frac_logic_0.mux_frac_logic_out_0.mux_l1_in_0_/A1
+ ltile_clb_mode_0.ltile_clb_mode_fle_2.ltile_clb_physical__fabric_0.ltile_clb__frac_logic_0.mux_frac_logic_out_0.mux_l1_in_0_/S
+ ltile_clb_mode_0.ltile_clb_mode_fle_2.ltile_clb_physical__fabric_0.ltile_clb__frac_logic_0.mux_frac_logic_out_0.mux_l1_in_0_/X
+ VGND VGND VPWR VPWR sky130_fd_sc_hd__mux2_1
XFILLER_13_123 VGND VGND VPWR VPWR sky130_fd_sc_hd__decap_12
XFILLER_5_355 VGND VGND VPWR VPWR sky130_fd_sc_hd__fill_2
XFILLER_5_322 VGND VGND VPWR VPWR sky130_fd_sc_hd__decap_12
XFILLER_47_9 VGND VGND VPWR VPWR sky130_fd_sc_hd__fill_2
Xltile_clb_mode_0.ltile_clb_mode_fle_5.ltile_clb_physical__fabric_0.ltile_clb__frac_logic_0.ltile_clb_frac_lut4_0.frac_lut4_0_.sky130_fd_sc_hd__buf_2_2_
+ right_width_0_height_0__pin_22_ ltile_clb_mode_0.ltile_clb_mode_fle_5.ltile_clb_physical__fabric_0.ltile_clb__frac_logic_0.ltile_clb_frac_lut4_0.frac_lut4_0_.sky130_fd_sc_hd__buf_2_2_/X
+ VGND VGND VPWR VPWR sky130_fd_sc_hd__buf_2
XANTENNA_ltile_clb_mode_0.ltile_clb_mode_fle_5.ltile_clb_physical__fabric_0.ltile_clb__frac_logic_0.mem_frac_logic_out_0.sky130_fd_sc_hd__dfxtp_1_1__CLK
+ clkbuf_4_11_0_prog_clk/X VGND VGND VPWR VPWR sky130_fd_sc_hd__diode_2
XFILLER_5_399 VGND VGND VPWR VPWR sky130_fd_sc_hd__decap_8
X_82_ top_width_0_height_0__pin_40_lower top_width_0_height_0__pin_40_upper VGND VGND
+ VPWR VPWR sky130_fd_sc_hd__buf_2
XFILLER_36_259 VGND VGND VPWR VPWR sky130_fd_sc_hd__fill_2
XFILLER_51_229 VGND VGND VPWR VPWR sky130_fd_sc_hd__decap_4
XFILLER_59_318 VGND VGND VPWR VPWR sky130_fd_sc_hd__decap_12
XANTENNA_ltile_clb_mode_0.ltile_clb_mode_fle_4.ltile_clb_physical__fabric_0.ltile_clb__frac_logic_0.ltile_clb_frac_lut4_0.frac_lut4_sky130_fd_sc_hd__dfxtp_1_mem.sky130_fd_sc_hd__dfxtp_1_4__CLK
+ clkbuf_4_10_0_prog_clk/X VGND VGND VPWR VPWR sky130_fd_sc_hd__diode_2
XFILLER_50_251 VGND VGND VPWR VPWR sky130_fd_sc_hd__fill_2
Xltile_clb_mode_0.ltile_clb_mode_fle_3.ltile_clb_physical__fabric_0.mem_ff_0_D_0.sky130_fd_sc_hd__dfxtp_1_1_
+ ltile_clb_mode_0.ltile_clb_mode_fle_3.ltile_clb_physical__fabric_0.mux_ff_0_D_0.mux_l1_in_0_/S
+ ltile_clb_mode_0.ltile_clb_mode_fle_3.ltile_clb_physical__fabric_0.mux_ff_0_D_0.mux_l2_in_0_/S
+ clkbuf_4_12_0_prog_clk/X VGND VGND VPWR VPWR sky130_fd_sc_hd__dfxtp_1
Xltile_clb_mode_0.ltile_clb_mode_fle_4.ltile_clb_physical__fabric_0.ltile_clb__frac_logic_0.ltile_clb_frac_lut4_0.frac_lut4_sky130_fd_sc_hd__dfxtp_1_mem.sky130_fd_sc_hd__dfxtp_1_4_
+ ltile_clb_mode_0.ltile_clb_mode_fle_4.ltile_clb_physical__fabric_0.ltile_clb__frac_logic_0.ltile_clb_frac_lut4_0.frac_lut4_0_.frac_lut4_mux_0_.mux_l1_in_1_/A0
+ ltile_clb_mode_0.ltile_clb_mode_fle_4.ltile_clb_physical__fabric_0.ltile_clb__frac_logic_0.ltile_clb_frac_lut4_0.frac_lut4_0_.frac_lut4_mux_0_.mux_l1_in_2_/A1
+ clkbuf_4_10_0_prog_clk/X VGND VGND VPWR VPWR sky130_fd_sc_hd__dfxtp_1
XANTENNA_ltile_clb_mode_0.ltile_clb_mode_fle_4.ltile_clb_physical__fabric_0.ltile_clb__frac_logic_0.ltile_clb_frac_lut4_0.frac_lut4_0_.frac_lut4_mux_0_.mux_l1_in_0__A0
+ ltile_clb_mode_0.ltile_clb_mode_fle_4.ltile_clb_physical__fabric_0.ltile_clb__frac_logic_0.ltile_clb_frac_lut4_0.frac_lut4_0_.frac_lut4_mux_0_.mux_l1_in_0_/A0
+ VGND VGND VPWR VPWR sky130_fd_sc_hd__diode_2
XFILLER_50_295 VGND VGND VPWR VPWR sky130_fd_sc_hd__decap_12
Xltile_clb_mode_0.ltile_clb_mode_fle_6.ltile_clb_physical__fabric_0.ltile_clb__ff_1.sky130_fd_sc_hd__sdfxtp_1_0_
+ ltile_clb_mode_0.ltile_clb_mode_fle_6.ltile_clb_physical__fabric_0.mux_fabric_out_1.mux_l1_in_0_/A0
+ ltile_clb_mode_0.ltile_clb_mode_fle_7.ltile_clb_physical__fabric_0.mux_ff_0_D_0.mux_l1_in_0_/A0
+ ltile_clb_mode_0.ltile_clb_mode_fle_6.ltile_clb_physical__fabric_0.mux_fabric_out_0.mux_l1_in_0_/A1
+ Test_en clkbuf_1_0__f_clk/X VGND VGND VPWR VPWR sky130_fd_sc_hd__sdfxtp_1
XFILLER_12_44 VGND VGND VPWR VPWR sky130_fd_sc_hd__decap_12
XFILLER_37_74 VGND VGND VPWR VPWR sky130_fd_sc_hd__decap_12
XANTENNA_ltile_clb_mode_0.ltile_clb_mode_fle_5.ltile_clb_physical__fabric_0.ltile_clb__frac_logic_0.ltile_clb_frac_lut4_0.frac_lut4_sky130_fd_sc_hd__dfxtp_1_mem.sky130_fd_sc_hd__dfxtp_1_6__D