* NGSPICE file created from grid_clb.ext - technology: EFS8A

* Black-box entry subcircuit for scs8hd_decap_12 abstract view
.subckt scs8hd_decap_12 vgnd vpwr
.ends

* Black-box entry subcircuit for scs8hd_fill_2 abstract view
.subckt scs8hd_fill_2 vpwr vgnd
.ends

* Black-box entry subcircuit for scs8hd_diode_2 abstract view
.subckt scs8hd_diode_2 DIODE vgnd vpwr
.ends

* Black-box entry subcircuit for scs8hd_ebufn_2 abstract view
.subckt scs8hd_ebufn_2 A TEB Z vgnd vpwr
.ends

* Black-box entry subcircuit for scs8hd_decap_4 abstract view
.subckt scs8hd_decap_4 vgnd vpwr
.ends

* Black-box entry subcircuit for scs8hd_decap_8 abstract view
.subckt scs8hd_decap_8 vgnd vpwr
.ends

* Black-box entry subcircuit for scs8hd_conb_1 abstract view
.subckt scs8hd_conb_1 HI LO vgnd vpwr
.ends

* Black-box entry subcircuit for scs8hd_fill_1 abstract view
.subckt scs8hd_fill_1 vgnd vpwr
.ends

* Black-box entry subcircuit for scs8hd_or2_4 abstract view
.subckt scs8hd_or2_4 A B X vgnd vpwr
.ends

* Black-box entry subcircuit for scs8hd_nor2_4 abstract view
.subckt scs8hd_nor2_4 A B Y vgnd vpwr
.ends

* Black-box entry subcircuit for scs8hd_decap_6 abstract view
.subckt scs8hd_decap_6 vgnd vpwr
.ends

* Black-box entry subcircuit for scs8hd_inv_1 abstract view
.subckt scs8hd_inv_1 A Y vgnd vpwr
.ends

* Black-box entry subcircuit for scs8hd_decap_3 abstract view
.subckt scs8hd_decap_3 vgnd vpwr
.ends

* Black-box entry subcircuit for scs8hd_lpflow_inputisolatch_1 abstract view
.subckt scs8hd_lpflow_inputisolatch_1 D Q SLEEPB vgnd vpwr
.ends

* Black-box entry subcircuit for scs8hd_tapvpwrvgnd_1 abstract view
.subckt scs8hd_tapvpwrvgnd_1 vgnd vpwr
.ends

* Black-box entry subcircuit for scs8hd_inv_8 abstract view
.subckt scs8hd_inv_8 A Y vgnd vpwr
.ends

* Black-box entry subcircuit for scs8hd_buf_1 abstract view
.subckt scs8hd_buf_1 A X vgnd vpwr
.ends

* Black-box entry subcircuit for scs8hd_or4_4 abstract view
.subckt scs8hd_or4_4 A B C D X vgnd vpwr
.ends

* Black-box entry subcircuit for scs8hd_or3_4 abstract view
.subckt scs8hd_or3_4 A B C X vgnd vpwr
.ends

* Black-box entry subcircuit for scs8hd_dfbbp_1 abstract view
.subckt scs8hd_dfbbp_1 CLK D Q QN RESETB SETB vgnd vpwr
.ends

* Black-box entry subcircuit for scs8hd_nand2_4 abstract view
.subckt scs8hd_nand2_4 A B Y vgnd vpwr
.ends

.subckt grid_clb address[0] address[1] address[2] address[3] address[4] address[5]
+ address[6] address[7] address[8] address[9] bottom_width_0_height_0__pin_10_ bottom_width_0_height_0__pin_14_
+ bottom_width_0_height_0__pin_2_ bottom_width_0_height_0__pin_6_ clk data_in enable
+ left_width_0_height_0__pin_11_ left_width_0_height_0__pin_3_ left_width_0_height_0__pin_7_
+ reset right_width_0_height_0__pin_13_ right_width_0_height_0__pin_1_ right_width_0_height_0__pin_5_
+ right_width_0_height_0__pin_9_ set top_width_0_height_0__pin_0_ top_width_0_height_0__pin_12_
+ top_width_0_height_0__pin_4_ top_width_0_height_0__pin_8_ vpwr vgnd
XFILLER_79_391 vgnd vpwr scs8hd_decap_12
XFILLER_39_277 vpwr vgnd scs8hd_fill_2
XANTENNA_ltile_clb_0.ltile_clb_fle_1.ltile_clb_n1_lut4__ble4_0.logical_tile_clb_mode_default__fle_mode_n1_lut4__ble4_mode_default__lut4_0.lut4_0_.buf4_2_.scs8hd_buf_1_A
+ ltile_clb_0.mux_fle_1_in_2.INVTX1_14_.scs8hd_inv_1/Y vgnd vpwr scs8hd_diode_2
XANTENNA_ltile_clb_0.mem_fle_3_in_2.LATCH_7_.latch_D data_in vgnd vpwr scs8hd_diode_2
XFILLER_54_247 vpwr vgnd scs8hd_fill_2
XFILLER_35_461 vpwr vgnd scs8hd_fill_2
Xltile_clb_0.ltile_clb_fle_2.ltile_clb_n1_lut4__ble4_0.logical_tile_clb_mode_default__fle_mode_n1_lut4__ble4_mode_default__lut4_0.lut4_0_.lut4_mux_0_.mux_l1_in_6_.TGATE_0_.scs8hd_ebufn_2
+ ltile_clb_0.ltile_clb_fle_2.ltile_clb_n1_lut4__ble4_0.logical_tile_clb_mode_default__fle_mode_n1_lut4__ble4_mode_default__lut4_0.lut4_0_.lut4_mux_0_.INVTX1_12_.scs8hd_inv_1/Y
+ _140_/Y ltile_clb_0.ltile_clb_fle_2.ltile_clb_n1_lut4__ble4_0.logical_tile_clb_mode_default__fle_mode_n1_lut4__ble4_mode_default__lut4_0.lut4_0_.lut4_mux_0_.mux_l2_in_3_.TGATE_0_.scs8hd_ebufn_2/A
+ vgnd vpwr scs8hd_ebufn_2
XFILLER_22_166 vpwr vgnd scs8hd_fill_2
XANTENNA_ltile_clb_0.mux_fle_2_in_3.mux_l2_in_0_.TGATE_2_.scs8hd_ebufn_2_A ltile_clb_0.mux_fle_2_in_3.mux_l1_in_2_.TGATE_0_.scs8hd_ebufn_2/Z
+ vgnd vpwr scs8hd_diode_2
XFILLER_77_15 vgnd vpwr scs8hd_decap_12
XANTENNA__203__B _231_/A vgnd vpwr scs8hd_diode_2
XANTENNA_ltile_clb_0.mem_fle_3_in_3.LATCH_5_.latch_D data_in vgnd vpwr scs8hd_diode_2
XFILLER_77_306 vgnd vpwr scs8hd_decap_12
XFILLER_77_59 vpwr vgnd scs8hd_fill_2
XANTENNA_ltile_clb_0.mem_fle_0_in_0.LATCH_7_.latch_SLEEPB _354_/Y vgnd vpwr scs8hd_diode_2
XFILLER_73_501 vgnd vpwr scs8hd_decap_12
XFILLER_45_236 vpwr vgnd scs8hd_fill_2
XFILLER_33_409 vpwr vgnd scs8hd_fill_2
XFILLER_60_228 vgnd vpwr scs8hd_decap_4
XFILLER_60_206 vgnd vpwr scs8hd_decap_8
X_432_ _432_/HI _432_/LO vgnd vpwr scs8hd_conb_1
XANTENNA_ltile_clb_0.ltile_clb_fle_1.ltile_clb_n1_lut4__ble4_0.logical_tile_clb_mode_default__fle_mode_n1_lut4__ble4_mode_default__lut4_0.lut4_0_.lut4_mux_0_.mux_l1_in_3_.TGATE_0_.scs8hd_ebufn_2_TEB
+ _148_/Y vgnd vpwr scs8hd_diode_2
XFILLER_9_115 vgnd vpwr scs8hd_fill_1
X_363_ address[4] _362_/X _367_/B vgnd vpwr scs8hd_or2_4
X_294_ _276_/A _295_/B _294_/Y vgnd vpwr scs8hd_nor2_4
XFILLER_41_486 vpwr vgnd scs8hd_fill_2
XFILLER_5_398 vpwr vgnd scs8hd_fill_2
XFILLER_5_387 vpwr vgnd scs8hd_fill_2
XANTENNA_ltile_clb_0.ltile_clb_fle_3.ltile_clb_n1_lut4__ble4_0.logical_tile_clb_mode_default__fle_mode_n1_lut4__ble4_mode_default__lut4_0.lut4_0_.lut4_mux_0_.INVTX1_3_.scs8hd_inv_1_A
+ ltile_clb_0.ltile_clb_fle_3.ltile_clb_n1_lut4__ble4_0.logical_tile_clb_mode_default__fle_mode_n1_lut4__ble4_mode_default__lut4_0.lut4_LATCH_mem.LATCH_3_.latch/Q
+ vgnd vpwr scs8hd_diode_2
XFILLER_68_328 vgnd vpwr scs8hd_decap_8
XANTENNA_ltile_clb_0.mux_fle_1_in_3.mux_l1_in_1_.TGATE_2_.scs8hd_ebufn_2_A ltile_clb_0.mux_fle_1_in_3.INVTX1_6_.scs8hd_inv_1/Y
+ vgnd vpwr scs8hd_diode_2
XFILLER_76_361 vgnd vpwr scs8hd_decap_12
XANTENNA_ltile_clb_0.ltile_clb_fle_1.ltile_clb_n1_lut4__ble4_0.logical_tile_clb_mode_default__fle_mode_n1_lut4__ble4_mode_default__lut4_0.lut4_0_.lut4_mux_0_.mux_l3_in_1_.TGATE_1_.scs8hd_ebufn_2_A
+ ltile_clb_0.ltile_clb_fle_1.ltile_clb_n1_lut4__ble4_0.logical_tile_clb_mode_default__fle_mode_n1_lut4__ble4_mode_default__lut4_0.lut4_0_.lut4_mux_0_.mux_l2_in_3_.TGATE_0_.scs8hd_ebufn_2/Z
+ vgnd vpwr scs8hd_diode_2
XFILLER_36_247 vgnd vpwr scs8hd_decap_6
XFILLER_51_217 vpwr vgnd scs8hd_fill_2
XFILLER_17_461 vgnd vpwr scs8hd_decap_12
XFILLER_44_280 vpwr vgnd scs8hd_fill_2
Xltile_clb_0.ltile_clb_fle_3.ltile_clb_n1_lut4__ble4_0.logical_tile_clb_mode_default__fle_mode_n1_lut4__ble4_mode_default__lut4_0.lut4_0_.lut4_mux_0_.INVTX1_3_.scs8hd_inv_1
+ ltile_clb_0.ltile_clb_fle_3.ltile_clb_n1_lut4__ble4_0.logical_tile_clb_mode_default__fle_mode_n1_lut4__ble4_mode_default__lut4_0.lut4_LATCH_mem.LATCH_3_.latch/Q
+ ltile_clb_0.ltile_clb_fle_3.ltile_clb_n1_lut4__ble4_0.logical_tile_clb_mode_default__fle_mode_n1_lut4__ble4_mode_default__lut4_0.lut4_0_.lut4_mux_0_.INVTX1_3_.scs8hd_inv_1/Y
+ vgnd vpwr scs8hd_inv_1
Xltile_clb_0.mux_fle_2_in_1.INVTX1_5_.scs8hd_inv_1 right_width_0_height_0__pin_5_
+ ltile_clb_0.mux_fle_2_in_1.INVTX1_5_.scs8hd_inv_1/Y vgnd vpwr scs8hd_inv_1
XANTENNA__304__A _231_/A vgnd vpwr scs8hd_diode_2
Xltile_clb_0.mux_fle_0_in_1.mux_l2_in_0_.TGATE_3_.scs8hd_ebufn_2 ltile_clb_0.mux_fle_0_in_1.mux_l1_in_3_.TGATE_0_.scs8hd_ebufn_2/Z
+ ltile_clb_0.mem_fle_0_in_1.LATCH_7_.latch/Q ltile_clb_0.mux_fle_0_in_1.INVTX1_14_.scs8hd_inv_1/A
+ vgnd vpwr scs8hd_ebufn_2
XFILLER_59_317 vgnd vpwr scs8hd_fill_1
XFILLER_55_501 vgnd vpwr scs8hd_decap_12
XFILLER_67_372 vpwr vgnd scs8hd_fill_2
XFILLER_27_225 vgnd vpwr scs8hd_decap_4
XFILLER_82_342 vgnd vpwr scs8hd_decap_12
XFILLER_27_258 vgnd vpwr scs8hd_decap_4
XFILLER_70_515 vgnd vpwr scs8hd_fill_1
XFILLER_63_39 vgnd vpwr scs8hd_decap_12
XANTENNA_ltile_clb_0.ltile_clb_fle_0.ltile_clb_n1_lut4__ble4_0.mux_ble4_out_0.mux_l1_in_0_.TGATE_0_.scs8hd_ebufn_2_A
+ ltile_clb_0.ltile_clb_fle_0.ltile_clb_n1_lut4__ble4_0.mux_ble4_out_0.INVTX1_0_.scs8hd_inv_1/Y
+ vgnd vpwr scs8hd_diode_2
XFILLER_82_397 vgnd vpwr scs8hd_decap_6
XFILLER_23_431 vpwr vgnd scs8hd_fill_2
XANTENNA_ltile_clb_0.mux_fle_3_in_0.mux_l1_in_0_.TGATE_2_.scs8hd_ebufn_2_TEB ltile_clb_0.mem_fle_3_in_0.LATCH_2_.latch/Q
+ vgnd vpwr scs8hd_diode_2
Xltile_clb_0.ltile_clb_fle_1.ltile_clb_n1_lut4__ble4_0.logical_tile_clb_mode_default__fle_mode_n1_lut4__ble4_mode_default__lut4_0.lut4_0_.lut4_mux_0_.mux_l1_in_2_.TGATE_1_.scs8hd_ebufn_2
+ ltile_clb_0.ltile_clb_fle_1.ltile_clb_n1_lut4__ble4_0.logical_tile_clb_mode_default__fle_mode_n1_lut4__ble4_mode_default__lut4_0.lut4_0_.lut4_mux_0_.INVTX1_5_.scs8hd_inv_1/Y
+ _147_/Y ltile_clb_0.ltile_clb_fle_1.ltile_clb_n1_lut4__ble4_0.logical_tile_clb_mode_default__fle_mode_n1_lut4__ble4_mode_default__lut4_0.lut4_0_.lut4_mux_0_.mux_l2_in_1_.TGATE_0_.scs8hd_ebufn_2/A
+ vgnd vpwr scs8hd_ebufn_2
XFILLER_50_261 vgnd vpwr scs8hd_decap_4
XFILLER_10_158 vpwr vgnd scs8hd_fill_2
XANTENNA_ltile_clb_0.mux_fle_0_in_2.INVTX1_7_.scs8hd_inv_1_A left_width_0_height_0__pin_7_
+ vgnd vpwr scs8hd_diode_2
XFILLER_12_32 vgnd vpwr scs8hd_decap_12
XFILLER_10_169 vgnd vpwr scs8hd_decap_3
Xltile_clb_0.ltile_clb_fle_0.ltile_clb_n1_lut4__ble4_0.logical_tile_clb_mode_default__fle_mode_n1_lut4__ble4_mode_default__lut4_0.lut4_0_.lut4_mux_0_.INVTX1_14_.scs8hd_inv_1
+ ltile_clb_0.ltile_clb_fle_0.ltile_clb_n1_lut4__ble4_0.logical_tile_clb_mode_default__fle_mode_n1_lut4__ble4_mode_default__lut4_0.lut4_LATCH_mem.LATCH_14_.latch/Q
+ ltile_clb_0.ltile_clb_fle_0.ltile_clb_n1_lut4__ble4_0.logical_tile_clb_mode_default__fle_mode_n1_lut4__ble4_mode_default__lut4_0.lut4_0_.lut4_mux_0_.INVTX1_14_.scs8hd_inv_1/Y
+ vgnd vpwr scs8hd_inv_1
XANTENNA__214__A _178_/B vgnd vpwr scs8hd_diode_2
XFILLER_2_346 vpwr vgnd scs8hd_fill_2
XFILLER_77_147 vgnd vpwr scs8hd_decap_12
XANTENNA_ltile_clb_0.ltile_clb_fle_1.ltile_clb_n1_lut4__ble4_0.logical_tile_clb_mode_default__fle_mode_n1_lut4__ble4_mode_default__lut4_0.lut4_0_.lut4_mux_0_.INVTX1_13_.scs8hd_inv_1_A
+ ltile_clb_0.ltile_clb_fle_1.ltile_clb_n1_lut4__ble4_0.logical_tile_clb_mode_default__fle_mode_n1_lut4__ble4_mode_default__lut4_0.lut4_LATCH_mem.LATCH_13_.latch/Q
+ vgnd vpwr scs8hd_diode_2
Xltile_clb_0.ltile_clb_fle_3.ltile_clb_n1_lut4__ble4_0.logical_tile_clb_mode_default__fle_mode_n1_lut4__ble4_mode_default__lut4_0.lut4_LATCH_mem.LATCH_0_.latch
+ data_in ltile_clb_0.ltile_clb_fle_3.ltile_clb_n1_lut4__ble4_0.logical_tile_clb_mode_default__fle_mode_n1_lut4__ble4_mode_default__lut4_0.lut4_LATCH_mem.LATCH_0_.latch/Q
+ _379_/Y vgnd vpwr scs8hd_lpflow_inputisolatch_1
XFILLER_37_51 vgnd vpwr scs8hd_decap_8
XFILLER_73_342 vgnd vpwr scs8hd_decap_12
XFILLER_37_62 vgnd vpwr scs8hd_decap_12
XFILLER_14_431 vgnd vpwr scs8hd_decap_12
XFILLER_33_239 vgnd vpwr scs8hd_decap_3
X_415_ _371_/A _416_/B _415_/Y vgnd vpwr scs8hd_nor2_4
X_346_ _274_/A _352_/B _346_/Y vgnd vpwr scs8hd_nor2_4
XFILLER_41_283 vgnd vpwr scs8hd_decap_3
Xltile_clb_0.mux_fle_2_in_2.mux_l1_in_2_.TGATE_1_.scs8hd_ebufn_2 ltile_clb_0.mux_fle_2_in_2.INVTX1_9_.scs8hd_inv_1/Y
+ ltile_clb_0.mem_fle_2_in_2.LATCH_1_.latch/Q ltile_clb_0.mux_fle_2_in_2.mux_l1_in_2_.TGATE_2_.scs8hd_ebufn_2/Z
+ vgnd vpwr scs8hd_ebufn_2
Xltile_clb_0.mux_fle_0_in_2.mux_l1_in_3_.TGATE_2_.scs8hd_ebufn_2 _434_/HI ltile_clb_0.mem_fle_0_in_2.LATCH_2_.latch/Q
+ ltile_clb_0.mux_fle_0_in_2.mux_l1_in_3_.TGATE_2_.scs8hd_ebufn_2/Z vgnd vpwr scs8hd_ebufn_2
X_277_ _231_/A _280_/B _277_/Y vgnd vpwr scs8hd_nor2_4
XANTENNA_ltile_clb_0.ltile_clb_fle_0.ltile_clb_n1_lut4__ble4_0.logical_tile_clb_mode_default__fle_mode_n1_lut4__ble4_mode_default__lut4_0.lut4_0_.lut4_mux_0_.mux_l1_in_4_.TGATE_0_.scs8hd_ebufn_2_A
+ ltile_clb_0.ltile_clb_fle_0.ltile_clb_n1_lut4__ble4_0.logical_tile_clb_mode_default__fle_mode_n1_lut4__ble4_mode_default__lut4_0.lut4_0_.lut4_mux_0_.INVTX1_8_.scs8hd_inv_1/Y
+ vgnd vpwr scs8hd_diode_2
XANTENNA__124__A address[0] vgnd vpwr scs8hd_diode_2
Xltile_clb_0.mux_fle_3_in_2.INVTX1_0_.scs8hd_inv_1 top_width_0_height_0__pin_0_ ltile_clb_0.mux_fle_3_in_2.INVTX1_0_.scs8hd_inv_1/Y
+ vgnd vpwr scs8hd_inv_1
XFILLER_5_195 vpwr vgnd scs8hd_fill_2
XFILLER_78_80 vgnd vpwr scs8hd_decap_12
XANTENNA_ltile_clb_0.mux_fle_1_in_3.INVTX1_4_.scs8hd_inv_1_A top_width_0_height_0__pin_4_
+ vgnd vpwr scs8hd_diode_2
XFILLER_37_501 vgnd vpwr scs8hd_decap_12
XFILLER_64_331 vgnd vpwr scs8hd_decap_3
XFILLER_64_386 vpwr vgnd scs8hd_fill_2
XFILLER_52_515 vgnd vpwr scs8hd_fill_1
XANTENNA_ltile_clb_0.mux_fle_2_in_0.INVTX1_0_.scs8hd_inv_1_A top_width_0_height_0__pin_0_
+ vgnd vpwr scs8hd_diode_2
XANTENNA_ltile_clb_0.ltile_clb_fle_2.ltile_clb_n1_lut4__ble4_0.logical_tile_clb_mode_default__fle_mode_n1_lut4__ble4_mode_default__lut4_0.lut4_LATCH_mem.LATCH_1_.latch_SLEEPB
+ _400_/Y vgnd vpwr scs8hd_diode_2
Xltile_clb_0.mux_fle_2_in_2.INVTX1_9_.scs8hd_inv_1 right_width_0_height_0__pin_9_
+ ltile_clb_0.mux_fle_2_in_2.INVTX1_9_.scs8hd_inv_1/Y vgnd vpwr scs8hd_inv_1
XFILLER_20_456 vpwr vgnd scs8hd_fill_2
XFILLER_74_117 vgnd vpwr scs8hd_decap_12
Xltile_clb_0.ltile_clb_fle_1.ltile_clb_n1_lut4__ble4_0.logical_tile_clb_mode_default__fle_mode_n1_lut4__ble4_mode_default__lut4_0.lut4_0_.lut4_mux_0_.INVTX1_8_.scs8hd_inv_1
+ ltile_clb_0.ltile_clb_fle_1.ltile_clb_n1_lut4__ble4_0.logical_tile_clb_mode_default__fle_mode_n1_lut4__ble4_mode_default__lut4_0.lut4_LATCH_mem.LATCH_8_.latch/Q
+ ltile_clb_0.ltile_clb_fle_1.ltile_clb_n1_lut4__ble4_0.logical_tile_clb_mode_default__fle_mode_n1_lut4__ble4_mode_default__lut4_0.lut4_0_.lut4_mux_0_.INVTX1_8_.scs8hd_inv_1/Y
+ vgnd vpwr scs8hd_inv_1
XFILLER_74_27 vgnd vpwr scs8hd_decap_4
XFILLER_67_191 vpwr vgnd scs8hd_fill_2
XFILLER_55_342 vpwr vgnd scs8hd_fill_2
XFILLER_70_301 vpwr vgnd scs8hd_fill_2
XFILLER_55_386 vgnd vpwr scs8hd_decap_6
XFILLER_70_323 vgnd vpwr scs8hd_decap_12
XPHY_702 vgnd vpwr scs8hd_tapvpwrvgnd_1
XFILLER_55_397 vpwr vgnd scs8hd_fill_2
XANTENNA_ltile_clb_0.mem_fle_0_in_3.LATCH_0_.latch_SLEEPB _334_/Y vgnd vpwr scs8hd_diode_2
XPHY_735 vgnd vpwr scs8hd_tapvpwrvgnd_1
XPHY_724 vgnd vpwr scs8hd_tapvpwrvgnd_1
XPHY_713 vgnd vpwr scs8hd_tapvpwrvgnd_1
XANTENNA__209__A address[3] vgnd vpwr scs8hd_diode_2
XPHY_768 vgnd vpwr scs8hd_tapvpwrvgnd_1
XPHY_757 vgnd vpwr scs8hd_tapvpwrvgnd_1
XPHY_746 vgnd vpwr scs8hd_tapvpwrvgnd_1
XFILLER_70_389 vgnd vpwr scs8hd_fill_1
XFILLER_11_412 vgnd vpwr scs8hd_decap_12
X_200_ _202_/A _200_/B _200_/Y vgnd vpwr scs8hd_nor2_4
XPHY_779 vgnd vpwr scs8hd_tapvpwrvgnd_1
X_131_ _131_/A _131_/Y vgnd vpwr scs8hd_inv_8
XFILLER_11_489 vgnd vpwr scs8hd_decap_12
XANTENNA_ltile_clb_0.mux_fle_0_in_2.mux_l1_in_3_.TGATE_0_.scs8hd_ebufn_2_TEB ltile_clb_0.mem_fle_0_in_2.LATCH_0_.latch/Q
+ vgnd vpwr scs8hd_diode_2
Xltile_clb_0.mem_fle_0_in_1.LATCH_2_.latch data_in ltile_clb_0.mem_fle_0_in_1.LATCH_2_.latch/Q
+ _350_/Y vgnd vpwr scs8hd_lpflow_inputisolatch_1
XFILLER_2_143 vpwr vgnd scs8hd_fill_2
XFILLER_2_154 vgnd vpwr scs8hd_decap_8
XFILLER_78_434 vgnd vpwr scs8hd_decap_12
XANTENNA_ltile_clb_0.mux_fle_3_in_3.mux_l1_in_1_.TGATE_2_.scs8hd_ebufn_2_TEB ltile_clb_0.mem_fle_3_in_3.LATCH_2_.latch/Q
+ vgnd vpwr scs8hd_diode_2
XFILLER_19_501 vgnd vpwr scs8hd_decap_12
XFILLER_61_301 vpwr vgnd scs8hd_fill_2
Xltile_clb_0.mem_fle_1_in_1.LATCH_1_.latch data_in ltile_clb_0.mem_fle_1_in_1.LATCH_1_.latch/Q
+ _315_/Y vgnd vpwr scs8hd_lpflow_inputisolatch_1
XFILLER_64_93 vgnd vpwr scs8hd_decap_12
XFILLER_61_367 vgnd vpwr scs8hd_decap_4
XFILLER_61_389 vgnd vpwr scs8hd_decap_4
XANTENNA_ltile_clb_0.ltile_clb_fle_2.ltile_clb_n1_lut4__ble4_0.logical_tile_clb_mode_default__fle_mode_n1_lut4__ble4_mode_default__lut4_0.lut4_0_.lut4_mux_0_.INVTX1_5_.scs8hd_inv_1_A
+ ltile_clb_0.ltile_clb_fle_2.ltile_clb_n1_lut4__ble4_0.logical_tile_clb_mode_default__fle_mode_n1_lut4__ble4_mode_default__lut4_0.lut4_LATCH_mem.LATCH_5_.latch/Q
+ vgnd vpwr scs8hd_diode_2
XFILLER_14_261 vpwr vgnd scs8hd_fill_2
XFILLER_9_88 vpwr vgnd scs8hd_fill_2
X_329_ _247_/A _326_/X _329_/Y vgnd vpwr scs8hd_nor2_4
XANTENNA_ltile_clb_0.mux_fle_3_in_3.INVTX1_10_.scs8hd_inv_1_A bottom_width_0_height_0__pin_10_
+ vgnd vpwr scs8hd_diode_2
Xltile_clb_0.mux_fle_3_in_3.INVTX1_4_.scs8hd_inv_1 top_width_0_height_0__pin_4_ ltile_clb_0.mux_fle_3_in_3.INVTX1_4_.scs8hd_inv_1/Y
+ vgnd vpwr scs8hd_inv_1
XFILLER_6_471 vgnd vpwr scs8hd_decap_12
Xltile_clb_0.mem_fle_2_in_1.LATCH_0_.latch data_in ltile_clb_0.mem_fle_2_in_1.LATCH_0_.latch/Q
+ _280_/Y vgnd vpwr scs8hd_lpflow_inputisolatch_1
XFILLER_50_3 vgnd vpwr scs8hd_decap_12
XANTENNA_ltile_clb_0.ltile_clb_fle_0.ltile_clb_n1_lut4__ble4_0.logical_tile_clb_mode_default__fle_mode_n1_lut4__ble4_mode_default__lut4_0.lut4_0_.lut4_mux_0_.mux_l1_in_6_.TGATE_1_.scs8hd_ebufn_2_A
+ ltile_clb_0.ltile_clb_fle_0.ltile_clb_n1_lut4__ble4_0.logical_tile_clb_mode_default__fle_mode_n1_lut4__ble4_mode_default__lut4_0.lut4_0_.lut4_mux_0_.INVTX1_13_.scs8hd_inv_1/Y
+ vgnd vpwr scs8hd_diode_2
XANTENNA__301__B _304_/B vgnd vpwr scs8hd_diode_2
XFILLER_29_309 vpwr vgnd scs8hd_fill_2
XFILLER_69_489 vgnd vpwr scs8hd_decap_12
XFILLER_37_320 vgnd vpwr scs8hd_decap_8
XFILLER_49_191 vpwr vgnd scs8hd_fill_2
XFILLER_64_161 vpwr vgnd scs8hd_fill_2
Xltile_clb_0.mux_fle_0_in_0.mux_l1_in_2_.TGATE_0_.scs8hd_ebufn_2 ltile_clb_0.mux_fle_0_in_0.INVTX1_8_.scs8hd_inv_1/Y
+ ltile_clb_0.mem_fle_0_in_0.LATCH_0_.latch/Q ltile_clb_0.mux_fle_0_in_0.mux_l1_in_2_.TGATE_2_.scs8hd_ebufn_2/Z
+ vgnd vpwr scs8hd_ebufn_2
XFILLER_64_194 vpwr vgnd scs8hd_fill_2
XFILLER_52_323 vpwr vgnd scs8hd_fill_2
XANTENNA_ltile_clb_0.mux_fle_0_in_3.mux_l1_in_2_.TGATE_0_.scs8hd_ebufn_2_A ltile_clb_0.mux_fle_0_in_3.INVTX1_8_.scs8hd_inv_1/Y
+ vgnd vpwr scs8hd_diode_2
XFILLER_52_345 vgnd vpwr scs8hd_fill_1
XFILLER_20_264 vgnd vpwr scs8hd_fill_1
XANTENNA_ltile_clb_0.mux_fle_3_in_1.mux_l1_in_2_.TGATE_0_.scs8hd_ebufn_2_A ltile_clb_0.mux_fle_3_in_1.INVTX1_8_.scs8hd_inv_1/Y
+ vgnd vpwr scs8hd_diode_2
XFILLER_69_27 vgnd vpwr scs8hd_decap_12
XANTENNA_ltile_clb_0.mem_fle_1_in_2.LATCH_0_.latch_SLEEPB _307_/Y vgnd vpwr scs8hd_diode_2
XANTENNA__211__B _166_/X vgnd vpwr scs8hd_diode_2
XFILLER_75_415 vgnd vpwr scs8hd_decap_12
Xltile_clb_0.ltile_clb_fle_0.ltile_clb_n1_lut4__ble4_0.logical_tile_clb_mode_default__fle_mode_n1_lut4__ble4_mode_default__lut4_0.lut4_0_.lut4_mux_0_.mux_l2_in_3_.TGATE_0_.scs8hd_ebufn_2
+ ltile_clb_0.ltile_clb_fle_0.ltile_clb_n1_lut4__ble4_0.logical_tile_clb_mode_default__fle_mode_n1_lut4__ble4_mode_default__lut4_0.lut4_0_.lut4_mux_0_.mux_l1_in_6_.TGATE_1_.scs8hd_ebufn_2/Z
+ _158_/Y ltile_clb_0.ltile_clb_fle_0.ltile_clb_n1_lut4__ble4_0.logical_tile_clb_mode_default__fle_mode_n1_lut4__ble4_mode_default__lut4_0.lut4_0_.lut4_mux_0_.mux_l3_in_1_.TGATE_1_.scs8hd_ebufn_2/A
+ vgnd vpwr scs8hd_ebufn_2
XFILLER_47_117 vgnd vpwr scs8hd_fill_1
XFILLER_28_331 vgnd vpwr scs8hd_decap_4
XFILLER_47_139 vgnd vpwr scs8hd_decap_3
XFILLER_16_515 vgnd vpwr scs8hd_fill_1
XFILLER_43_301 vpwr vgnd scs8hd_fill_2
XFILLER_18_97 vpwr vgnd scs8hd_fill_2
XANTENNA_ltile_clb_0.ltile_clb_fle_3.ltile_clb_n1_lut4__ble4_0.logical_tile_clb_mode_default__fle_mode_n1_lut4__ble4_mode_default__lut4_0.lut4_0_.lut4_mux_0_.mux_l3_in_1_.TGATE_1_.scs8hd_ebufn_2_A
+ ltile_clb_0.ltile_clb_fle_3.ltile_clb_n1_lut4__ble4_0.logical_tile_clb_mode_default__fle_mode_n1_lut4__ble4_mode_default__lut4_0.lut4_0_.lut4_mux_0_.mux_l3_in_1_.TGATE_1_.scs8hd_ebufn_2/A
+ vgnd vpwr scs8hd_diode_2
XANTENNA_ltile_clb_0.ltile_clb_fle_2.ltile_clb_n1_lut4__ble4_0.logical_tile_clb_mode_default__fle_mode_n1_lut4__ble4_mode_default__lut4_0.lut4_LATCH_mem.LATCH_13_.latch_D
+ data_in vgnd vpwr scs8hd_diode_2
Xltile_clb_0.mem_fle_0_in_3.LATCH_5_.latch data_in ltile_clb_0.mem_fle_0_in_3.LATCH_5_.latch/Q
+ _329_/Y vgnd vpwr scs8hd_lpflow_inputisolatch_1
XPHY_510 vgnd vpwr scs8hd_tapvpwrvgnd_1
Xltile_clb_0.ltile_clb_fle_1.ltile_clb_n1_lut4__ble4_0.logical_tile_clb_mode_default__fle_mode_n1_lut4__ble4_mode_default__lut4_0.lut4_0_.buf4_2_.scs8hd_buf_1
+ ltile_clb_0.mux_fle_1_in_2.INVTX1_14_.scs8hd_inv_1/Y _151_/A vgnd vpwr scs8hd_buf_1
Xltile_clb_0.mux_fle_1_in_3.mux_l1_in_2_.TGATE_1_.scs8hd_ebufn_2 ltile_clb_0.mux_fle_1_in_3.INVTX1_9_.scs8hd_inv_1/Y
+ ltile_clb_0.mem_fle_1_in_3.LATCH_1_.latch/Q ltile_clb_0.mux_fle_1_in_3.mux_l1_in_2_.TGATE_3_.scs8hd_ebufn_2/Z
+ vgnd vpwr scs8hd_ebufn_2
XPHY_521 vgnd vpwr scs8hd_tapvpwrvgnd_1
XFILLER_43_378 vpwr vgnd scs8hd_fill_2
XPHY_532 vgnd vpwr scs8hd_tapvpwrvgnd_1
XPHY_543 vgnd vpwr scs8hd_tapvpwrvgnd_1
Xltile_clb_0.mux_fle_3_in_3.mux_l1_in_1_.TGATE_0_.scs8hd_ebufn_2 ltile_clb_0.mux_fle_3_in_3.INVTX1_4_.scs8hd_inv_1/Y
+ ltile_clb_0.mem_fle_3_in_3.LATCH_0_.latch/Q ltile_clb_0.mux_fle_3_in_3.mux_l1_in_1_.TGATE_0_.scs8hd_ebufn_2/Z
+ vgnd vpwr scs8hd_ebufn_2
XPHY_587 vgnd vpwr scs8hd_tapvpwrvgnd_1
XPHY_576 vgnd vpwr scs8hd_tapvpwrvgnd_1
XFILLER_11_231 vpwr vgnd scs8hd_fill_2
XPHY_554 vgnd vpwr scs8hd_tapvpwrvgnd_1
XPHY_565 vgnd vpwr scs8hd_tapvpwrvgnd_1
XPHY_598 vgnd vpwr scs8hd_tapvpwrvgnd_1
XFILLER_11_297 vpwr vgnd scs8hd_fill_2
XANTENNA_ltile_clb_0.ltile_clb_fle_2.ltile_clb_n1_lut4__ble4_0.logical_tile_clb_mode_default__fle_mode_n1_lut4__ble4_mode_default__lut4_0.lut4_0_.lut4_mux_0_.mux_l3_in_0_.TGATE_0_.scs8hd_ebufn_2_TEB
+ _144_/Y vgnd vpwr scs8hd_diode_2
XFILLER_3_452 vgnd vpwr scs8hd_decap_12
Xltile_clb_0.mem_fle_1_in_3.LATCH_4_.latch data_in ltile_clb_0.mem_fle_1_in_3.LATCH_4_.latch/Q
+ _294_/Y vgnd vpwr scs8hd_lpflow_inputisolatch_1
XANTENNA__402__A _380_/A vgnd vpwr scs8hd_diode_2
XFILLER_66_459 vgnd vpwr scs8hd_decap_12
XFILLER_66_448 vgnd vpwr scs8hd_fill_1
XFILLER_19_353 vpwr vgnd scs8hd_fill_2
Xltile_clb_0.mem_fle_2_in_3.LATCH_3_.latch data_in ltile_clb_0.mem_fle_2_in_3.LATCH_3_.latch/Q
+ _259_/Y vgnd vpwr scs8hd_lpflow_inputisolatch_1
XFILLER_22_507 vgnd vpwr scs8hd_decap_8
XFILLER_61_175 vpwr vgnd scs8hd_fill_2
Xltile_clb_0.mem_fle_3_in_3.LATCH_2_.latch data_in ltile_clb_0.mem_fle_3_in_3.LATCH_2_.latch/Q
+ _223_/Y vgnd vpwr scs8hd_lpflow_inputisolatch_1
XANTENNA__312__A _276_/A vgnd vpwr scs8hd_diode_2
XFILLER_69_242 vpwr vgnd scs8hd_fill_2
XFILLER_69_264 vpwr vgnd scs8hd_fill_2
Xltile_clb_0.mux_fle_3_in_0.mux_l1_in_0_.TGATE_3_.scs8hd_ebufn_2 ltile_clb_0.mux_fle_3_in_0.INVTX1_3_.scs8hd_inv_1/Y
+ ltile_clb_0.mem_fle_3_in_0.LATCH_3_.latch/Q ltile_clb_0.mux_fle_3_in_0.mux_l1_in_0_.TGATE_0_.scs8hd_ebufn_2/Z
+ vgnd vpwr scs8hd_ebufn_2
XFILLER_65_470 vgnd vpwr scs8hd_decap_12
XFILLER_25_301 vgnd vpwr scs8hd_decap_4
XFILLER_37_172 vpwr vgnd scs8hd_fill_2
XFILLER_25_367 vpwr vgnd scs8hd_fill_2
XFILLER_80_495 vgnd vpwr scs8hd_decap_12
XANTENNA_ltile_clb_0.mem_fle_2_in_1.LATCH_0_.latch_SLEEPB _280_/Y vgnd vpwr scs8hd_diode_2
XFILLER_52_186 vpwr vgnd scs8hd_fill_2
XFILLER_52_175 vpwr vgnd scs8hd_fill_2
XFILLER_40_326 vgnd vpwr scs8hd_decap_6
XFILLER_71_39 vgnd vpwr scs8hd_decap_12
Xltile_clb_0.ltile_clb_fle_1.ltile_clb_n1_lut4__ble4_0.logical_tile_clb_mode_default__fle_mode_n1_lut4__ble4_mode_default__lut4_0.lut4_0_.lut4_mux_0_.INVTX1_14_.scs8hd_inv_1
+ ltile_clb_0.ltile_clb_fle_1.ltile_clb_n1_lut4__ble4_0.logical_tile_clb_mode_default__fle_mode_n1_lut4__ble4_mode_default__lut4_0.lut4_LATCH_mem.LATCH_14_.latch/Q
+ ltile_clb_0.ltile_clb_fle_1.ltile_clb_n1_lut4__ble4_0.logical_tile_clb_mode_default__fle_mode_n1_lut4__ble4_mode_default__lut4_0.lut4_0_.lut4_mux_0_.INVTX1_14_.scs8hd_inv_1/Y
+ vgnd vpwr scs8hd_inv_1
XANTENNA__206__B _377_/A vgnd vpwr scs8hd_diode_2
XANTENNA_ltile_clb_0.mux_fle_0_in_2.mux_l2_in_0_.TGATE_3_.scs8hd_ebufn_2_TEB ltile_clb_0.mem_fle_0_in_2.LATCH_7_.latch/Q
+ vgnd vpwr scs8hd_diode_2
XFILLER_4_238 vgnd vpwr scs8hd_fill_1
XANTENNA_ltile_clb_0.ltile_clb_fle_2.ltile_clb_n1_lut4__ble4_0.logical_tile_clb_mode_default__fle_mode_n1_lut4__ble4_mode_default__lut4_0.lut4_0_.lut4_mux_0_.mux_l1_in_4_.TGATE_0_.scs8hd_ebufn_2_A
+ ltile_clb_0.ltile_clb_fle_2.ltile_clb_n1_lut4__ble4_0.logical_tile_clb_mode_default__fle_mode_n1_lut4__ble4_mode_default__lut4_0.lut4_0_.lut4_mux_0_.INVTX1_8_.scs8hd_inv_1/Y
+ vgnd vpwr scs8hd_diode_2
XFILLER_20_32 vgnd vpwr scs8hd_decap_12
XANTENNA__222__A _231_/A vgnd vpwr scs8hd_diode_2
XFILLER_0_466 vgnd vpwr scs8hd_decap_12
Xltile_clb_0.ltile_clb_fle_2.ltile_clb_n1_lut4__ble4_0.mem_ble4_out_0.LATCH_0_.latch
+ data_in ltile_clb_0.ltile_clb_fle_2.ltile_clb_n1_lut4__ble4_0.mem_ble4_out_0.LATCH_0_.latch/Q
+ _405_/Y vgnd vpwr scs8hd_lpflow_inputisolatch_1
XFILLER_75_245 vgnd vpwr scs8hd_decap_12
XFILLER_29_74 vgnd vpwr scs8hd_decap_12
XANTENNA_ltile_clb_0.ltile_clb_fle_0.ltile_clb_n1_lut4__ble4_0.logical_tile_clb_mode_default__fle_mode_n1_lut4__ble4_mode_default__lut4_0.lut4_LATCH_mem.LATCH_6_.latch_SLEEPB
+ _197_/Y vgnd vpwr scs8hd_diode_2
XFILLER_56_481 vgnd vpwr scs8hd_decap_12
XFILLER_56_470 vgnd vpwr scs8hd_decap_8
XFILLER_71_440 vgnd vpwr scs8hd_decap_12
XFILLER_16_334 vpwr vgnd scs8hd_fill_2
XFILLER_16_356 vgnd vpwr scs8hd_decap_6
XFILLER_45_51 vgnd vpwr scs8hd_decap_8
XFILLER_45_62 vgnd vpwr scs8hd_decap_12
XANTENNA_ltile_clb_0.mux_fle_2_in_2.INVTX1_14_.scs8hd_inv_1_A ltile_clb_0.mux_fle_2_in_2.INVTX1_14_.scs8hd_inv_1/A
+ vgnd vpwr scs8hd_diode_2
Xltile_clb_0.ltile_clb_fle_1.ltile_clb_n1_lut4__ble4_0.logical_tile_clb_mode_default__fle_mode_n1_lut4__ble4_mode_default__lut4_0.lut4_0_.lut4_mux_0_.mux_l4_in_0_.TGATE_0_.scs8hd_ebufn_2
+ ltile_clb_0.ltile_clb_fle_1.ltile_clb_n1_lut4__ble4_0.logical_tile_clb_mode_default__fle_mode_n1_lut4__ble4_mode_default__lut4_0.lut4_0_.lut4_mux_0_.mux_l4_in_0_.TGATE_0_.scs8hd_ebufn_2/A
+ _154_/Y ltile_clb_0.ltile_clb_fle_1.ltile_clb_n1_lut4__ble4_0.logical_tile_clb_mode_default__fle_mode_n1_lut4__ble4_mode_default__lut4_0.lut4_0_.lut4_mux_0_.INVTX1_16_.scs8hd_inv_1/A
+ vgnd vpwr scs8hd_ebufn_2
XFILLER_16_389 vgnd vpwr scs8hd_decap_8
XPHY_340 vgnd vpwr scs8hd_tapvpwrvgnd_1
XPHY_351 vgnd vpwr scs8hd_tapvpwrvgnd_1
XFILLER_31_337 vgnd vpwr scs8hd_fill_1
XPHY_362 vgnd vpwr scs8hd_tapvpwrvgnd_1
XPHY_373 vgnd vpwr scs8hd_tapvpwrvgnd_1
XPHY_384 vgnd vpwr scs8hd_tapvpwrvgnd_1
XPHY_395 vgnd vpwr scs8hd_tapvpwrvgnd_1
XANTENNA_ltile_clb_0.mux_fle_3_in_0.INVTX1_6_.scs8hd_inv_1_A bottom_width_0_height_0__pin_6_
+ vgnd vpwr scs8hd_diode_2
XFILLER_61_94 vgnd vpwr scs8hd_decap_3
XFILLER_6_56 vgnd vpwr scs8hd_decap_12
XFILLER_3_260 vpwr vgnd scs8hd_fill_2
XANTENNA__132__A _132_/A vgnd vpwr scs8hd_diode_2
Xltile_clb_0.mux_fle_1_in_0.INVTX1_13_.scs8hd_inv_1 right_width_0_height_0__pin_13_
+ ltile_clb_0.mux_fle_1_in_0.INVTX1_13_.scs8hd_inv_1/Y vgnd vpwr scs8hd_inv_1
XFILLER_66_201 vgnd vpwr scs8hd_decap_8
XFILLER_39_404 vpwr vgnd scs8hd_fill_2
XFILLER_66_223 vgnd vpwr scs8hd_fill_1
XFILLER_66_212 vpwr vgnd scs8hd_fill_2
XANTENNA_ltile_clb_0.mux_fle_3_in_2.mux_l1_in_1_.TGATE_2_.scs8hd_ebufn_2_A ltile_clb_0.mux_fle_3_in_2.INVTX1_6_.scs8hd_inv_1/Y
+ vgnd vpwr scs8hd_diode_2
XFILLER_13_3 vgnd vpwr scs8hd_decap_12
XANTENNA_ltile_clb_0.ltile_clb_fle_1.ltile_clb_n1_lut4__ble4_0.logical_tile_clb_mode_default__fle_mode_n1_lut4__ble4_mode_default__lut4_0.lut4_0_.lut4_mux_0_.INVTX1_7_.scs8hd_inv_1_A
+ ltile_clb_0.ltile_clb_fle_1.ltile_clb_n1_lut4__ble4_0.logical_tile_clb_mode_default__fle_mode_n1_lut4__ble4_mode_default__lut4_0.lut4_LATCH_mem.LATCH_7_.latch/Q
+ vgnd vpwr scs8hd_diode_2
XFILLER_66_267 vgnd vpwr scs8hd_decap_8
XANTENNA_ltile_clb_0.ltile_clb_fle_1.ltile_clb_n1_lut4__ble4_0.logical_tile_clb_mode_default__fle_mode_n1_lut4__ble4_mode_default__lut4_0.lut4_0_.lut4_mux_0_.mux_l1_in_7_.TGATE_1_.scs8hd_ebufn_2_TEB
+ _147_/Y vgnd vpwr scs8hd_diode_2
XFILLER_66_289 vgnd vpwr scs8hd_decap_8
XFILLER_34_131 vgnd vpwr scs8hd_fill_1
Xltile_clb_0.ltile_clb_fle_2.ltile_clb_n1_lut4__ble4_0.mux_ble4_out_0.mux_l1_in_0_.TGATE_0_.scs8hd_ebufn_2
+ ltile_clb_0.ltile_clb_fle_2.ltile_clb_n1_lut4__ble4_0.mux_ble4_out_0.INVTX1_0_.scs8hd_inv_1/Y
+ ltile_clb_0.ltile_clb_fle_2.ltile_clb_n1_lut4__ble4_0.mem_ble4_out_0.LATCH_0_.latch/Q
+ ltile_clb_0.ltile_clb_fle_2.ltile_clb_n1_lut4__ble4_0.mux_ble4_out_0.tap_buf4_0_.scs8hd_inv_1/A
+ vgnd vpwr scs8hd_ebufn_2
XFILLER_22_304 vpwr vgnd scs8hd_fill_2
XFILLER_34_175 vpwr vgnd scs8hd_fill_2
XFILLER_62_495 vgnd vpwr scs8hd_decap_12
XFILLER_22_348 vgnd vpwr scs8hd_decap_8
XFILLER_34_186 vgnd vpwr scs8hd_decap_4
Xltile_clb_0.mux_fle_0_in_0.INVTX1_0_.scs8hd_inv_1 top_width_0_height_0__pin_0_ ltile_clb_0.mux_fle_0_in_0.INVTX1_0_.scs8hd_inv_1/Y
+ vgnd vpwr scs8hd_inv_1
XANTENNA__307__A _280_/A vgnd vpwr scs8hd_diode_2
XANTENNA_ltile_clb_0.mux_fle_1_in_0.mux_l1_in_0_.TGATE_2_.scs8hd_ebufn_2_A ltile_clb_0.mux_fle_1_in_0.INVTX1_2_.scs8hd_inv_1/Y
+ vgnd vpwr scs8hd_diode_2
XANTENNA_ltile_clb_0.mux_fle_3_in_2.mux_l1_in_0_.TGATE_1_.scs8hd_ebufn_2_TEB ltile_clb_0.mem_fle_3_in_2.LATCH_1_.latch/Q
+ vgnd vpwr scs8hd_diode_2
XANTENNA_ltile_clb_0.mem_fle_3_in_0.LATCH_0_.latch_SLEEPB _252_/Y vgnd vpwr scs8hd_diode_2
XANTENNA_ltile_clb_0.ltile_clb_fle_2.ltile_clb_n1_lut4__ble4_0.logical_tile_clb_mode_default__fle_mode_n1_lut4__ble4_mode_default__lut4_0.lut4_0_.lut4_mux_0_.mux_l1_in_1_.TGATE_0_.scs8hd_ebufn_2_TEB
+ _140_/Y vgnd vpwr scs8hd_diode_2
Xltile_clb_0.ltile_clb_fle_0.ltile_clb_n1_lut4__ble4_0.logical_tile_clb_mode_default__fle_mode_n1_lut4__ble4_mode_default__lut4_0.lut4_0_.lut4_mux_0_.INVTX1_1_.scs8hd_inv_1
+ ltile_clb_0.ltile_clb_fle_0.ltile_clb_n1_lut4__ble4_0.logical_tile_clb_mode_default__fle_mode_n1_lut4__ble4_mode_default__lut4_0.lut4_LATCH_mem.LATCH_1_.latch/Q
+ ltile_clb_0.ltile_clb_fle_0.ltile_clb_n1_lut4__ble4_0.logical_tile_clb_mode_default__fle_mode_n1_lut4__ble4_mode_default__lut4_0.lut4_0_.lut4_mux_0_.INVTX1_1_.scs8hd_inv_1/Y
+ vgnd vpwr scs8hd_inv_1
XFILLER_57_245 vgnd vpwr scs8hd_decap_3
XFILLER_72_204 vgnd vpwr scs8hd_decap_8
XFILLER_57_267 vpwr vgnd scs8hd_fill_2
XFILLER_72_215 vgnd vpwr scs8hd_decap_6
XFILLER_82_27 vgnd vpwr scs8hd_decap_4
XFILLER_25_175 vpwr vgnd scs8hd_fill_2
XFILLER_25_197 vgnd vpwr scs8hd_decap_4
XANTENNA_ltile_clb_0.mux_fle_3_in_1.mux_l1_in_2_.TGATE_2_.scs8hd_ebufn_2_TEB ltile_clb_0.mem_fle_3_in_1.LATCH_2_.latch/Q
+ vgnd vpwr scs8hd_diode_2
XANTENNA__217__A address[8] vgnd vpwr scs8hd_diode_2
XFILLER_15_98 vpwr vgnd scs8hd_fill_2
XFILLER_31_86 vgnd vpwr scs8hd_decap_8
XFILLER_31_97 vpwr vgnd scs8hd_fill_2