* NGSPICE file created from grid_clb.ext - technology: EFS8A

* Black-box entry subcircuit for scs8hd_diode_2 abstract view
.subckt scs8hd_diode_2 DIODE vgnd vpwr
.ends

* Black-box entry subcircuit for scs8hd_decap_4 abstract view
.subckt scs8hd_decap_4 vgnd vpwr
.ends

* Black-box entry subcircuit for scs8hd_mux2_1 abstract view
.subckt scs8hd_mux2_1 A0 A1 S X vgnd vpwr
.ends

* Black-box entry subcircuit for scs8hd_fill_1 abstract view
.subckt scs8hd_fill_1 vgnd vpwr
.ends

* Black-box entry subcircuit for scs8hd_decap_12 abstract view
.subckt scs8hd_decap_12 vgnd vpwr
.ends

* Black-box entry subcircuit for scs8hd_dfxbp_1 abstract view
.subckt scs8hd_dfxbp_1 CLK D Q QN vgnd vpwr
.ends

* Black-box entry subcircuit for scs8hd_fill_2 abstract view
.subckt scs8hd_fill_2 vpwr vgnd
.ends

* Black-box entry subcircuit for scs8hd_decap_8 abstract view
.subckt scs8hd_decap_8 vgnd vpwr
.ends

* Black-box entry subcircuit for scs8hd_decap_6 abstract view
.subckt scs8hd_decap_6 vgnd vpwr
.ends

* Black-box entry subcircuit for scs8hd_decap_3 abstract view
.subckt scs8hd_decap_3 vgnd vpwr
.ends

* Black-box entry subcircuit for scs8hd_buf_2 abstract view
.subckt scs8hd_buf_2 A X vgnd vpwr
.ends

* Black-box entry subcircuit for scs8hd_sdfxbp_1 abstract view
.subckt scs8hd_sdfxbp_1 CLK D Q QN SCD SCE vgnd vpwr
.ends

* Black-box entry subcircuit for scs8hd_conb_1 abstract view
.subckt scs8hd_conb_1 HI LO vgnd vpwr
.ends

* Black-box entry subcircuit for scs8hd_tapvpwrvgnd_1 abstract view
.subckt scs8hd_tapvpwrvgnd_1 vgnd vpwr
.ends

* Black-box entry subcircuit for scs8hd_or2_1 abstract view
.subckt scs8hd_or2_1 A B X vgnd vpwr
.ends

* Black-box entry subcircuit for scs8hd_clkbuf_16 abstract view
.subckt scs8hd_clkbuf_16 A X vgnd vpwr
.ends

* Black-box entry subcircuit for scs8hd_clkbuf_1 abstract view
.subckt scs8hd_clkbuf_1 A X vgnd vpwr
.ends

.subckt grid_clb Test_en bottom_width_0_height_0__pin_16_ bottom_width_0_height_0__pin_17_
+ bottom_width_0_height_0__pin_18_ bottom_width_0_height_0__pin_19_ bottom_width_0_height_0__pin_20_
+ bottom_width_0_height_0__pin_21_ bottom_width_0_height_0__pin_22_ bottom_width_0_height_0__pin_23_
+ bottom_width_0_height_0__pin_24_ bottom_width_0_height_0__pin_25_ bottom_width_0_height_0__pin_26_
+ bottom_width_0_height_0__pin_27_ bottom_width_0_height_0__pin_28_ bottom_width_0_height_0__pin_29_
+ bottom_width_0_height_0__pin_30_ bottom_width_0_height_0__pin_31_ bottom_width_0_height_0__pin_42_lower
+ bottom_width_0_height_0__pin_42_upper bottom_width_0_height_0__pin_43_lower bottom_width_0_height_0__pin_43_upper
+ bottom_width_0_height_0__pin_44_lower bottom_width_0_height_0__pin_44_upper bottom_width_0_height_0__pin_45_lower
+ bottom_width_0_height_0__pin_45_upper bottom_width_0_height_0__pin_46_lower bottom_width_0_height_0__pin_46_upper
+ bottom_width_0_height_0__pin_47_lower bottom_width_0_height_0__pin_47_upper bottom_width_0_height_0__pin_48_lower
+ bottom_width_0_height_0__pin_48_upper bottom_width_0_height_0__pin_49_lower bottom_width_0_height_0__pin_49_upper
+ bottom_width_0_height_0__pin_50_ bottom_width_0_height_0__pin_51_ ccff_head ccff_tail
+ clk left_width_0_height_0__pin_52_ prog_clk right_width_0_height_0__pin_0_ right_width_0_height_0__pin_10_
+ right_width_0_height_0__pin_11_ right_width_0_height_0__pin_12_ right_width_0_height_0__pin_13_
+ right_width_0_height_0__pin_14_ right_width_0_height_0__pin_15_ right_width_0_height_0__pin_1_
+ right_width_0_height_0__pin_2_ right_width_0_height_0__pin_34_lower right_width_0_height_0__pin_34_upper
+ right_width_0_height_0__pin_35_lower right_width_0_height_0__pin_35_upper right_width_0_height_0__pin_36_lower
+ right_width_0_height_0__pin_36_upper right_width_0_height_0__pin_37_lower right_width_0_height_0__pin_37_upper
+ right_width_0_height_0__pin_38_lower right_width_0_height_0__pin_38_upper right_width_0_height_0__pin_39_lower
+ right_width_0_height_0__pin_39_upper right_width_0_height_0__pin_3_ right_width_0_height_0__pin_40_lower
+ right_width_0_height_0__pin_40_upper right_width_0_height_0__pin_41_lower right_width_0_height_0__pin_41_upper
+ right_width_0_height_0__pin_4_ right_width_0_height_0__pin_5_ right_width_0_height_0__pin_6_
+ right_width_0_height_0__pin_7_ right_width_0_height_0__pin_8_ right_width_0_height_0__pin_9_
+ top_width_0_height_0__pin_32_ top_width_0_height_0__pin_33_ vpwr vgnd
XANTENNA_ltile_clb_mode_0.ltile_clb_fle_3.ltile_fabric_0.ltile_clb_frac_logic_0.ltile_clb_md_fle_mp_fab_md_flogic_md_frac_lut4_0.frac_lut4_0_.frac_lut4_mux_0_.scs8hd_buf_2_2__A
+ ltile_clb_mode_0.ltile_clb_fle_3.ltile_fabric_0.ltile_clb_frac_logic_0.ltile_clb_md_fle_mp_fab_md_flogic_md_frac_lut4_0.frac_lut4_0_.frac_lut4_mux_0_.mux_l4_in_0_/X
+ vgnd vpwr scs8hd_diode_2
XFILLER_39_277 vgnd vpwr scs8hd_decap_4
XANTENNA_ltile_clb_mode_0.ltile_clb_fle_3.ltile_fabric_0.ltile_clb_frac_logic_0.ltile_clb_md_fle_mp_fab_md_flogic_md_frac_lut4_0.frac_lut4_0_.frac_lut4_mux_0_.mux_l1_in_2__S
+ ltile_clb_mode_0.ltile_clb_fle_3.ltile_fabric_0.ltile_clb_frac_logic_0.ltile_clb_md_fle_mp_fab_md_flogic_md_frac_lut4_0.frac_lut4_0_.scs8hd_buf_2_0_/X
+ vgnd vpwr scs8hd_diode_2
Xltile_clb_mode_0.ltile_clb_fle_4.ltile_fabric_0.ltile_clb_frac_logic_0.ltile_clb_md_fle_mp_fab_md_flogic_md_frac_lut4_0.frac_lut4_0_.frac_lut4_mux_0_.mux_l1_in_1_
+ ltile_clb_mode_0.ltile_clb_fle_4.ltile_fabric_0.ltile_clb_frac_logic_0.ltile_clb_md_fle_mp_fab_md_flogic_md_frac_lut4_0.frac_lut4_0_.frac_lut4_mux_0_.mux_l1_in_1_/A0
+ ltile_clb_mode_0.ltile_clb_fle_4.ltile_fabric_0.ltile_clb_frac_logic_0.ltile_clb_md_fle_mp_fab_md_flogic_md_frac_lut4_0.frac_lut4_0_.frac_lut4_mux_0_.mux_l1_in_1_/A1
+ ltile_clb_mode_0.ltile_clb_fle_4.ltile_fabric_0.ltile_clb_frac_logic_0.ltile_clb_md_fle_mp_fab_md_flogic_md_frac_lut4_0.frac_lut4_0_.scs8hd_buf_2_0_/X
+ ltile_clb_mode_0.ltile_clb_fle_4.ltile_fabric_0.ltile_clb_frac_logic_0.ltile_clb_md_fle_mp_fab_md_flogic_md_frac_lut4_0.frac_lut4_0_.frac_lut4_mux_0_.mux_l1_in_1_/X
+ vgnd vpwr scs8hd_mux2_1
Xltile_clb_mode_0.ltile_clb_fle_2.ltile_fabric_0.mux_ff_0_D_0.mux_l2_in_0_ _62_/HI
+ ltile_clb_mode_0.ltile_clb_fle_2.ltile_fabric_0.mux_ff_0_D_0.mux_l1_in_0_/X ltile_clb_mode_0.ltile_clb_fle_2.ltile_fabric_0.mux_ff_0_D_0.mux_l2_in_0_/S
+ ltile_clb_mode_0.ltile_clb_fle_2.ltile_fabric_0.mux_ff_0_D_0.mux_l2_in_0_/X vgnd
+ vpwr scs8hd_mux2_1
XANTENNA_ltile_clb_mode_0.ltile_clb_fle_1.ltile_fabric_0.ltile_clb_frac_logic_0.ltile_clb_md_fle_mp_fab_md_flogic_md_frac_lut4_0.frac_lut4_sky130_fd_sc_hd__dfxbp_1_mem.scs8hd_dfxbp_1_5__CLK
+ prog_clk vgnd vpwr scs8hd_diode_2
XFILLER_18_406 vgnd vpwr scs8hd_fill_1
Xltile_clb_mode_0.ltile_clb_fle_4.ltile_fabric_0.mux_fabric_out_0.mux_l2_in_0_ _36_/HI
+ ltile_clb_mode_0.ltile_clb_fle_4.ltile_fabric_0.mux_fabric_out_0.mux_l1_in_0_/X
+ ltile_clb_mode_0.ltile_clb_fle_4.ltile_fabric_0.mux_fabric_out_0.mux_l2_in_0_/S
+ bottom_width_0_height_0__pin_43_lower vgnd vpwr scs8hd_mux2_1
XANTENNA_ltile_clb_mode_0.ltile_clb_fle_4.ltile_fabric_0.ltile_clb_frac_logic_0.ltile_clb_md_fle_mp_fab_md_flogic_md_frac_lut4_0.frac_lut4_0_.frac_lut4_mux_0_.mux_l1_in_4__A1
+ ltile_clb_mode_0.ltile_clb_fle_4.ltile_fabric_0.ltile_clb_frac_logic_0.ltile_clb_md_fle_mp_fab_md_flogic_md_frac_lut4_0.frac_lut4_0_.frac_lut4_mux_0_.mux_l1_in_4_/A1
+ vgnd vpwr scs8hd_diode_2
XANTENNA_ltile_clb_mode_0.ltile_clb_fle_6.ltile_fabric_0.ltile_clb_frac_logic_0.ltile_clb_md_fle_mp_fab_md_flogic_md_frac_lut4_0.frac_lut4_sky130_fd_sc_hd__dfxbp_1_mem.scs8hd_dfxbp_1_1__D
+ ltile_clb_mode_0.ltile_clb_fle_6.ltile_fabric_0.ltile_clb_frac_logic_0.ltile_clb_md_fle_mp_fab_md_flogic_md_frac_lut4_0.frac_lut4_0_.frac_lut4_mux_0_.mux_l1_in_0_/A1
+ vgnd vpwr scs8hd_diode_2
XFILLER_60_239 vgnd vpwr scs8hd_decap_12
XANTENNA_ltile_clb_mode_0.ltile_clb_fle_6.ltile_fabric_0.ltile_clb_frac_logic_0.ltile_clb_md_fle_mp_fab_md_flogic_md_frac_lut4_0.frac_lut4_0_.frac_lut4_mux_0_.mux_l2_in_0__S
+ ltile_clb_mode_0.ltile_clb_fle_6.ltile_fabric_0.ltile_clb_frac_logic_0.ltile_clb_md_fle_mp_fab_md_flogic_md_frac_lut4_0.frac_lut4_0_.scs8hd_buf_2_1_/X
+ vgnd vpwr scs8hd_diode_2
Xltile_clb_mode_0.ltile_clb_fle_6.ltile_fabric_0.mem_fabric_out_0.scs8hd_dfxbp_1_0_
+ prog_clk ltile_clb_mode_0.ltile_clb_fle_6.ltile_fabric_0.mem_fabric_out_0.scs8hd_dfxbp_1_0_/D
+ ltile_clb_mode_0.ltile_clb_fle_6.ltile_fabric_0.mux_fabric_out_0.mux_l1_in_0_/S
+ ltile_clb_mode_0.ltile_clb_fle_6.ltile_fabric_0.mem_fabric_out_0.scs8hd_dfxbp_1_0_/QN
+ vgnd vpwr scs8hd_dfxbp_1
Xltile_clb_mode_0.ltile_clb_fle_5.ltile_fabric_0.ltile_clb_frac_logic_0.ltile_clb_md_fle_mp_fab_md_flogic_md_frac_lut4_0.frac_lut4_0_.frac_lut4_mux_0_.mux_l2_in_3_
+ ltile_clb_mode_0.ltile_clb_fle_5.ltile_fabric_0.ltile_clb_frac_logic_0.ltile_clb_md_fle_mp_fab_md_flogic_md_frac_lut4_0.frac_lut4_0_.frac_lut4_mux_0_.mux_l1_in_7_/X
+ ltile_clb_mode_0.ltile_clb_fle_5.ltile_fabric_0.ltile_clb_frac_logic_0.ltile_clb_md_fle_mp_fab_md_flogic_md_frac_lut4_0.frac_lut4_0_.frac_lut4_mux_0_.mux_l1_in_6_/X
+ ltile_clb_mode_0.ltile_clb_fle_5.ltile_fabric_0.ltile_clb_frac_logic_0.ltile_clb_md_fle_mp_fab_md_flogic_md_frac_lut4_0.frac_lut4_0_.scs8hd_buf_2_1_/X
+ ltile_clb_mode_0.ltile_clb_fle_5.ltile_fabric_0.ltile_clb_frac_logic_0.ltile_clb_md_fle_mp_fab_md_flogic_md_frac_lut4_0.frac_lut4_0_.frac_lut4_mux_0_.mux_l2_in_3_/X
+ vgnd vpwr scs8hd_mux2_1
XFILLER_5_332 vgnd vpwr scs8hd_decap_4
XFILLER_36_269 vpwr vgnd scs8hd_fill_2
XANTENNA_ltile_clb_mode_0.ltile_clb_fle_3.ltile_fabric_0.ltile_clb_md_fle_mp_fab_md_ff_1.scs8hd_sdfxbp_1_0__CLK
+ clkbuf_1_1_0_clk/X vgnd vpwr scs8hd_diode_2
XFILLER_8_181 vpwr vgnd scs8hd_fill_2
XFILLER_59_306 vgnd vpwr scs8hd_decap_8
XANTENNA_ltile_clb_mode_0.ltile_clb_fle_6.ltile_fabric_0.ltile_clb_frac_logic_0.ltile_clb_md_fle_mp_fab_md_flogic_md_frac_lut4_0.frac_lut4_0_.frac_lut4_mux_0_.mux_l2_in_1__A1
+ ltile_clb_mode_0.ltile_clb_fle_6.ltile_fabric_0.ltile_clb_frac_logic_0.ltile_clb_md_fle_mp_fab_md_flogic_md_frac_lut4_0.frac_lut4_0_.frac_lut4_mux_0_.mux_l1_in_2_/X
+ vgnd vpwr scs8hd_diode_2
XFILLER_63_39 vgnd vpwr scs8hd_decap_12
XFILLER_42_239 vgnd vpwr scs8hd_decap_6
XFILLER_27_225 vpwr vgnd scs8hd_fill_2
XANTENNA_ltile_clb_mode_0.ltile_clb_fle_2.ltile_fabric_0.ltile_clb_frac_logic_0.ltile_clb_md_fle_mp_fab_md_flogic_md_frac_lut4_0.frac_lut4_0_.frac_lut4_mux_0_.mux_l1_in_6__A1
+ ltile_clb_mode_0.ltile_clb_fle_2.ltile_fabric_0.ltile_clb_frac_logic_0.ltile_clb_md_fle_mp_fab_md_flogic_md_frac_lut4_0.frac_lut4_0_.frac_lut4_mux_0_.mux_l1_in_6_/A1
+ vgnd vpwr scs8hd_diode_2
Xltile_clb_mode_0.ltile_clb_fle_1.ltile_fabric_0.ltile_clb_frac_logic_0.ltile_clb_md_fle_mp_fab_md_flogic_md_frac_lut4_0.frac_lut4_sky130_fd_sc_hd__dfxbp_1_mem.scs8hd_dfxbp_1_4_
+ prog_clk ltile_clb_mode_0.ltile_clb_fle_1.ltile_fabric_0.ltile_clb_frac_logic_0.ltile_clb_md_fle_mp_fab_md_flogic_md_frac_lut4_0.frac_lut4_0_.frac_lut4_mux_0_.mux_l1_in_1_/A0
+ ltile_clb_mode_0.ltile_clb_fle_1.ltile_fabric_0.ltile_clb_frac_logic_0.ltile_clb_md_fle_mp_fab_md_flogic_md_frac_lut4_0.frac_lut4_0_.frac_lut4_mux_0_.mux_l1_in_2_/A1
+ ltile_clb_mode_0.ltile_clb_fle_1.ltile_fabric_0.ltile_clb_frac_logic_0.ltile_clb_md_fle_mp_fab_md_flogic_md_frac_lut4_0.frac_lut4_sky130_fd_sc_hd__dfxbp_1_mem.scs8hd_dfxbp_1_4_/QN
+ vgnd vpwr scs8hd_dfxbp_1
XFILLER_6_118 vgnd vpwr scs8hd_decap_8
XFILLER_10_125 vpwr vgnd scs8hd_fill_2
XFILLER_12_32 vgnd vpwr scs8hd_decap_12
XFILLER_58_383 vgnd vpwr scs8hd_decap_12
XFILLER_37_62 vgnd vpwr scs8hd_decap_12
XFILLER_37_51 vgnd vpwr scs8hd_decap_8
XFILLER_41_250 vpwr vgnd scs8hd_fill_2
XFILLER_33_239 vgnd vpwr scs8hd_decap_3
XANTENNA_ltile_clb_mode_0.ltile_clb_fle_5.ltile_fabric_0.ltile_clb_frac_logic_0.ltile_clb_md_fle_mp_fab_md_flogic_md_frac_lut4_0.frac_lut4_sky130_fd_sc_hd__dfxbp_1_mem.scs8hd_dfxbp_1_8__D
+ ltile_clb_mode_0.ltile_clb_fle_5.ltile_fabric_0.ltile_clb_frac_logic_0.ltile_clb_md_fle_mp_fab_md_flogic_md_frac_lut4_0.frac_lut4_0_.frac_lut4_mux_0_.mux_l1_in_3_/A0
+ vgnd vpwr scs8hd_diode_2
XFILLER_5_162 vpwr vgnd scs8hd_fill_2
XFILLER_64_397 vgnd vpwr scs8hd_decap_6
XFILLER_64_342 vgnd vpwr scs8hd_decap_12
X_66_ bottom_width_0_height_0__pin_44_lower bottom_width_0_height_0__pin_44_upper
+ vgnd vpwr scs8hd_buf_2
XANTENNA_ltile_clb_mode_0.ltile_clb_fle_2.ltile_fabric_0.ltile_clb_frac_logic_0.ltile_clb_md_fle_mp_fab_md_flogic_md_frac_lut4_0.frac_lut4_0_.frac_lut4_mux_0_.mux_l1_in_0__S
+ ltile_clb_mode_0.ltile_clb_fle_2.ltile_fabric_0.ltile_clb_frac_logic_0.ltile_clb_md_fle_mp_fab_md_flogic_md_frac_lut4_0.frac_lut4_0_.scs8hd_buf_2_0_/X
+ vgnd vpwr scs8hd_diode_2
XANTENNA_ltile_clb_mode_0.ltile_clb_fle_4.ltile_fabric_0.ltile_clb_frac_logic_0.ltile_clb_md_fle_mp_fab_md_flogic_md_frac_lut4_0.frac_lut4_0_.frac_lut4_mux_0_.mux_l2_in_3__A1
+ ltile_clb_mode_0.ltile_clb_fle_4.ltile_fabric_0.ltile_clb_frac_logic_0.ltile_clb_md_fle_mp_fab_md_flogic_md_frac_lut4_0.frac_lut4_0_.frac_lut4_mux_0_.mux_l1_in_6_/X
+ vgnd vpwr scs8hd_diode_2
Xltile_clb_mode_0.ltile_clb_fle_3.ltile_fabric_0.ltile_clb_md_fle_mp_fab_md_ff_1.scs8hd_sdfxbp_1_0_
+ clkbuf_1_1_0_clk/X ltile_clb_mode_0.ltile_clb_fle_3.ltile_fabric_0.mux_fabric_out_1.mux_l1_in_0_/A0
+ ltile_clb_mode_0.ltile_clb_fle_4.ltile_fabric_0.mux_ff_0_D_0.mux_l1_in_0_/A0 ltile_clb_mode_0.ltile_clb_fle_3.ltile_fabric_0.ltile_clb_md_fle_mp_fab_md_ff_1.scs8hd_sdfxbp_1_0_/QN
+ ltile_clb_mode_0.ltile_clb_fle_3.ltile_fabric_0.mux_fabric_out_0.mux_l1_in_0_/A1
+ Test_en vgnd vpwr scs8hd_sdfxbp_1
XFILLER_59_147 vgnd vpwr scs8hd_decap_12
XANTENNA_ltile_clb_mode_0.ltile_clb_fle_3.ltile_fabric_0.ltile_clb_frac_logic_0.ltile_clb_md_fle_mp_fab_md_flogic_md_frac_lut4_0.frac_lut4_0_.frac_lut4_mux_0_.mux_l1_in_0__A0
+ ltile_clb_mode_0.ltile_clb_fle_3.ltile_fabric_0.ltile_clb_frac_logic_0.ltile_clb_md_fle_mp_fab_md_flogic_md_frac_lut4_0.frac_lut4_0_.frac_lut4_mux_0_.mux_l1_in_0_/A0
+ vgnd vpwr scs8hd_diode_2
Xltile_clb_mode_0.ltile_clb_fle_0.ltile_fabric_0.ltile_clb_frac_logic_0.ltile_clb_md_fle_mp_fab_md_flogic_md_frac_lut4_0.frac_lut4_0_.frac_lut4_mux_0_.scs8hd_buf_2_1_
+ ltile_clb_mode_0.ltile_clb_fle_0.ltile_fabric_0.ltile_clb_frac_logic_0.ltile_clb_md_fle_mp_fab_md_flogic_md_frac_lut4_0.frac_lut4_0_.frac_lut4_mux_0_.mux_l3_in_1_/X
+ ltile_clb_mode_0.ltile_clb_fle_0.ltile_fabric_0.mux_fabric_out_1.mux_l1_in_0_/A0
+ vgnd vpwr scs8hd_buf_2
XANTENNA_ltile_clb_mode_0.ltile_clb_fle_4.ltile_fabric_0.ltile_clb_frac_logic_0.ltile_clb_md_fle_mp_fab_md_flogic_md_frac_lut4_0.frac_lut4_0_.frac_lut4_mux_0_.mux_l1_in_7__S
+ ltile_clb_mode_0.ltile_clb_fle_4.ltile_fabric_0.ltile_clb_frac_logic_0.ltile_clb_md_fle_mp_fab_md_flogic_md_frac_lut4_0.frac_lut4_0_.scs8hd_buf_2_0_/X
+ vgnd vpwr scs8hd_diode_2
XFILLER_23_272 vgnd vpwr scs8hd_decap_4
XANTENNA_ltile_clb_mode_0.ltile_clb_fle_1.ltile_fabric_0.ltile_clb_frac_logic_0.ltile_clb_md_fle_mp_fab_md_flogic_md_frac_lut4_0.frac_lut4_0_.scs8hd_buf_2_0__A
+ right_width_0_height_0__pin_4_ vgnd vpwr scs8hd_diode_2
Xltile_clb_mode_0.ltile_clb_fle_5.ltile_fabric_0.ltile_clb_frac_logic_0.ltile_clb_md_fle_mp_fab_md_flogic_md_frac_lut4_0.frac_lut4_0_.frac_lut4_mux_0_.mux_l1_in_4_
+ ltile_clb_mode_0.ltile_clb_fle_5.ltile_fabric_0.ltile_clb_frac_logic_0.ltile_clb_md_fle_mp_fab_md_flogic_md_frac_lut4_0.frac_lut4_0_.frac_lut4_mux_0_.mux_l1_in_4_/A0
+ ltile_clb_mode_0.ltile_clb_fle_5.ltile_fabric_0.ltile_clb_frac_logic_0.ltile_clb_md_fle_mp_fab_md_flogic_md_frac_lut4_0.frac_lut4_0_.frac_lut4_mux_0_.mux_l1_in_4_/A1
+ ltile_clb_mode_0.ltile_clb_fle_5.ltile_fabric_0.ltile_clb_frac_logic_0.ltile_clb_md_fle_mp_fab_md_flogic_md_frac_lut4_0.frac_lut4_0_.scs8hd_buf_2_0_/X
+ ltile_clb_mode_0.ltile_clb_fle_5.ltile_fabric_0.ltile_clb_frac_logic_0.ltile_clb_md_fle_mp_fab_md_flogic_md_frac_lut4_0.frac_lut4_0_.frac_lut4_mux_0_.mux_l1_in_4_/X
+ vgnd vpwr scs8hd_mux2_1
XFILLER_15_217 vpwr vgnd scs8hd_fill_2
XANTENNA_ltile_clb_mode_0.ltile_clb_fle_3.ltile_fabric_0.mux_ff_0_D_0.mux_l1_in_0__A1
+ ltile_clb_mode_0.ltile_clb_fle_3.ltile_fabric_0.mux_ff_0_D_0.mux_l1_in_0_/A1 vgnd
+ vpwr scs8hd_diode_2
XFILLER_23_53 vpwr vgnd scs8hd_fill_2
XFILLER_23_31 vgnd vpwr scs8hd_fill_1
Xltile_clb_mode_0.ltile_clb_fle_7.ltile_fabric_0.ltile_clb_frac_logic_0.ltile_clb_md_fle_mp_fab_md_flogic_md_frac_lut4_0.frac_lut4_0_.scs8hd_buf_2_1_
+ bottom_width_0_height_0__pin_29_ ltile_clb_mode_0.ltile_clb_fle_7.ltile_fabric_0.ltile_clb_frac_logic_0.ltile_clb_md_fle_mp_fab_md_flogic_md_frac_lut4_0.frac_lut4_0_.scs8hd_buf_2_1_/X
+ vgnd vpwr scs8hd_buf_2
XFILLER_2_154 vpwr vgnd scs8hd_fill_2
XFILLER_61_367 vgnd vpwr scs8hd_decap_4
XFILLER_9_33 vgnd vpwr scs8hd_fill_1
XFILLER_9_66 vpwr vgnd scs8hd_fill_2
XANTENNA_ltile_clb_mode_0.ltile_clb_fle_6.ltile_fabric_0.ltile_clb_frac_logic_0.ltile_clb_md_fle_mp_fab_md_flogic_md_frac_lut4_0.frac_lut4_0_.frac_lut4_mux_0_.mux_l3_in_0__A1
+ ltile_clb_mode_0.ltile_clb_fle_6.ltile_fabric_0.ltile_clb_frac_logic_0.ltile_clb_md_fle_mp_fab_md_flogic_md_frac_lut4_0.frac_lut4_0_.frac_lut4_mux_0_.mux_l3_in_0_/A1
+ vgnd vpwr scs8hd_diode_2
XFILLER_14_272 vgnd vpwr scs8hd_decap_3
XFILLER_50_3 vgnd vpwr scs8hd_decap_12
XFILLER_56_117 vgnd vpwr scs8hd_decap_12
Xltile_clb_mode_0.ltile_clb_fle_3.ltile_fabric_0.ltile_clb_frac_logic_0.ltile_clb_md_fle_mp_fab_md_flogic_md_frac_lut4_0.frac_lut4_sky130_fd_sc_hd__dfxbp_1_mem.scs8hd_dfxbp_1_9_
+ prog_clk ltile_clb_mode_0.ltile_clb_fle_3.ltile_fabric_0.ltile_clb_frac_logic_0.ltile_clb_md_fle_mp_fab_md_flogic_md_frac_lut4_0.frac_lut4_0_.frac_lut4_mux_0_.mux_l1_in_4_/A1
+ ltile_clb_mode_0.ltile_clb_fle_3.ltile_fabric_0.ltile_clb_frac_logic_0.ltile_clb_md_fle_mp_fab_md_flogic_md_frac_lut4_0.frac_lut4_0_.frac_lut4_mux_0_.mux_l1_in_4_/A0
+ ltile_clb_mode_0.ltile_clb_fle_3.ltile_fabric_0.ltile_clb_frac_logic_0.ltile_clb_md_fle_mp_fab_md_flogic_md_frac_lut4_0.frac_lut4_sky130_fd_sc_hd__dfxbp_1_mem.scs8hd_dfxbp_1_9_/QN
+ vgnd vpwr scs8hd_dfxbp_1
XFILLER_37_331 vgnd vpwr scs8hd_decap_12
XFILLER_52_301 vgnd vpwr scs8hd_decap_4
XFILLER_52_312 vgnd vpwr scs8hd_decap_12
XANTENNA_ltile_clb_mode_0.ltile_clb_fle_1.ltile_fabric_0.ltile_clb_frac_logic_0.ltile_clb_md_fle_mp_fab_md_flogic_md_frac_lut4_0.frac_lut4_0_.frac_lut4_mux_0_.mux_l1_in_2__A0
+ ltile_clb_mode_0.ltile_clb_fle_1.ltile_fabric_0.ltile_clb_frac_logic_0.ltile_clb_md_fle_mp_fab_md_flogic_md_frac_lut4_0.frac_lut4_0_.frac_lut4_mux_0_.mux_l1_in_2_/A0
+ vgnd vpwr scs8hd_diode_2
X_49_ _49_/HI _49_/LO vgnd vpwr scs8hd_conb_1
Xltile_clb_mode_0.ltile_clb_fle_5.ltile_fabric_0.ltile_clb_frac_logic_0.ltile_clb_md_fle_mp_fab_md_flogic_md_frac_lut4_0.frac_lut4_0_.frac_lut4_mux_0_.mux_l4_in_0_
+ ltile_clb_mode_0.ltile_clb_fle_5.ltile_fabric_0.ltile_clb_frac_logic_0.ltile_clb_md_fle_mp_fab_md_flogic_md_frac_lut4_0.frac_lut4_0_.frac_lut4_mux_0_.mux_l3_in_1_/X
+ ltile_clb_mode_0.ltile_clb_fle_5.ltile_fabric_0.ltile_clb_frac_logic_0.ltile_clb_md_fle_mp_fab_md_flogic_md_frac_lut4_0.frac_lut4_0_.frac_lut4_mux_0_.mux_l3_in_0_/X
+ ltile_clb_mode_0.ltile_clb_fle_5.ltile_fabric_0.ltile_clb_frac_logic_0.ltile_clb_md_fle_mp_fab_md_flogic_md_frac_lut4_0.frac_lut4_0_.scs8hd_buf_2_3_/X
+ ltile_clb_mode_0.ltile_clb_fle_5.ltile_fabric_0.ltile_clb_frac_logic_0.ltile_clb_md_fle_mp_fab_md_flogic_md_frac_lut4_0.frac_lut4_0_.frac_lut4_mux_0_.mux_l4_in_0_/X
+ vgnd vpwr scs8hd_mux2_1
XFILLER_43_301 vpwr vgnd scs8hd_fill_2
XFILLER_28_320 vpwr vgnd scs8hd_fill_2
XFILLER_18_53 vpwr vgnd scs8hd_fill_2
XPHY_554 vgnd vpwr scs8hd_tapvpwrvgnd_1
XPHY_543 vgnd vpwr scs8hd_tapvpwrvgnd_1
XPHY_532 vgnd vpwr scs8hd_tapvpwrvgnd_1
XPHY_521 vgnd vpwr scs8hd_tapvpwrvgnd_1
XPHY_510 vgnd vpwr scs8hd_tapvpwrvgnd_1
XFILLER_11_253 vpwr vgnd scs8hd_fill_2
XFILLER_7_268 vpwr vgnd scs8hd_fill_2
XFILLER_11_297 vpwr vgnd scs8hd_fill_2
XFILLER_38_117 vgnd vpwr scs8hd_decap_12
XANTENNA_ltile_clb_mode_0.ltile_clb_fle_1.ltile_fabric_0.mem_fabric_out_0.scs8hd_dfxbp_1_0__CLK
+ prog_clk vgnd vpwr scs8hd_diode_2
XFILLER_34_301 vgnd vpwr scs8hd_decap_8
XANTENNA_ltile_clb_mode_0.ltile_clb_fle_3.ltile_fabric_0.ltile_clb_frac_logic_0.ltile_clb_md_fle_mp_fab_md_flogic_md_frac_lut4_0.frac_lut4_0_.frac_lut4_mux_0_.scs8hd_buf_2_5__A
+ ltile_clb_mode_0.ltile_clb_fle_3.ltile_fabric_0.ltile_clb_frac_logic_0.ltile_clb_md_fle_mp_fab_md_flogic_md_frac_lut4_0.frac_lut4_0_.frac_lut4_mux_0_.mux_l2_in_2_/X
+ vgnd vpwr scs8hd_diode_2
Xltile_clb_mode_0.ltile_clb_fle_6.ltile_fabric_0.ltile_clb_frac_logic_0.ltile_clb_md_fle_mp_fab_md_flogic_md_frac_lut4_0.frac_lut4_0_.frac_lut4_mux_0_.scs8hd_buf_2_6_
+ ltile_clb_mode_0.ltile_clb_fle_6.ltile_fabric_0.ltile_clb_frac_logic_0.ltile_clb_md_fle_mp_fab_md_flogic_md_frac_lut4_0.frac_lut4_0_.frac_lut4_mux_0_.mux_l2_in_3_/X
+ ltile_clb_mode_0.ltile_clb_fle_6.ltile_fabric_0.ltile_clb_frac_logic_0.ltile_clb_md_fle_mp_fab_md_flogic_md_frac_lut4_0.frac_lut4_0_.frac_lut4_mux_0_.mux_l3_in_1_/A0
+ vgnd vpwr scs8hd_buf_2
XANTENNA_ltile_clb_mode_0.ltile_clb_fle_3.ltile_fabric_0.ltile_clb_frac_logic_0.ltile_clb_md_fle_mp_fab_md_flogic_md_frac_lut4_0.frac_lut4_0_.frac_lut4_mux_0_.mux_l1_in_5__S
+ ltile_clb_mode_0.ltile_clb_fle_3.ltile_fabric_0.ltile_clb_frac_logic_0.ltile_clb_md_fle_mp_fab_md_flogic_md_frac_lut4_0.frac_lut4_0_.scs8hd_buf_2_0_/X
+ vgnd vpwr scs8hd_diode_2
XFILLER_25_301 vpwr vgnd scs8hd_fill_2
XANTENNA_ltile_clb_mode_0.ltile_clb_fle_5.ltile_fabric_0.mem_fabric_out_1.scs8hd_dfxbp_1_1__CLK
+ prog_clk vgnd vpwr scs8hd_diode_2
XFILLER_40_337 vgnd vpwr scs8hd_decap_12
XFILLER_25_367 vgnd vpwr scs8hd_decap_12
XFILLER_20_76 vpwr vgnd scs8hd_fill_2
XFILLER_20_32 vpwr vgnd scs8hd_fill_2
XANTENNA_ltile_clb_mode_0.ltile_clb_fle_6.ltile_fabric_0.mem_ff_0_D_0.scs8hd_dfxbp_1_0__D
+ ltile_clb_mode_0.ltile_clb_fle_6.ltile_fabric_0.mux_fabric_out_1.mux_l2_in_0_/S
+ vgnd vpwr scs8hd_diode_2
XANTENNA_ltile_clb_mode_0.ltile_clb_fle_6.ltile_fabric_0.ltile_clb_frac_logic_0.ltile_clb_md_fle_mp_fab_md_flogic_md_frac_lut4_0.frac_lut4_sky130_fd_sc_hd__dfxbp_1_mem.scs8hd_dfxbp_1_4__D
+ ltile_clb_mode_0.ltile_clb_fle_6.ltile_fabric_0.ltile_clb_frac_logic_0.ltile_clb_md_fle_mp_fab_md_flogic_md_frac_lut4_0.frac_lut4_0_.frac_lut4_mux_0_.mux_l1_in_1_/A0
+ vgnd vpwr scs8hd_diode_2
XANTENNA_ltile_clb_mode_0.ltile_clb_fle_6.ltile_fabric_0.ltile_clb_frac_logic_0.ltile_clb_md_fle_mp_fab_md_flogic_md_frac_lut4_0.frac_lut4_0_.frac_lut4_mux_0_.mux_l2_in_3__S
+ ltile_clb_mode_0.ltile_clb_fle_6.ltile_fabric_0.ltile_clb_frac_logic_0.ltile_clb_md_fle_mp_fab_md_flogic_md_frac_lut4_0.frac_lut4_0_.scs8hd_buf_2_1_/X
+ vgnd vpwr scs8hd_diode_2
XFILLER_45_62 vgnd vpwr scs8hd_decap_12
XFILLER_45_51 vgnd vpwr scs8hd_decap_8
XFILLER_16_356 vpwr vgnd scs8hd_fill_2
Xltile_clb_mode_0.ltile_clb_fle_6.ltile_fabric_0.ltile_clb_frac_logic_0.ltile_clb_md_fle_mp_fab_md_flogic_md_frac_lut4_0.frac_lut4_0_.frac_lut4_mux_0_.mux_l1_in_7_
+ ltile_clb_mode_0.ltile_clb_fle_6.ltile_fabric_0.ltile_clb_frac_logic_0.ltile_clb_md_fle_mp_fab_md_flogic_md_frac_lut4_0.frac_lut4_0_.frac_lut4_mux_0_.mux_l1_in_7_/A0
+ ltile_clb_mode_0.ltile_clb_fle_6.ltile_fabric_0.ltile_clb_frac_logic_0.ltile_clb_md_fle_mp_fab_md_flogic_md_frac_lut4_0.frac_lut4_0_.frac_lut4_mux_0_.mux_l1_in_7_/A1
+ ltile_clb_mode_0.ltile_clb_fle_6.ltile_fabric_0.ltile_clb_frac_logic_0.ltile_clb_md_fle_mp_fab_md_flogic_md_frac_lut4_0.frac_lut4_0_.scs8hd_buf_2_0_/X
+ ltile_clb_mode_0.ltile_clb_fle_6.ltile_fabric_0.ltile_clb_frac_logic_0.ltile_clb_md_fle_mp_fab_md_flogic_md_frac_lut4_0.frac_lut4_0_.frac_lut4_mux_0_.mux_l1_in_7_/X
+ vgnd vpwr scs8hd_mux2_1
XPHY_395 vgnd vpwr scs8hd_tapvpwrvgnd_1
XPHY_384 vgnd vpwr scs8hd_tapvpwrvgnd_1
XPHY_373 vgnd vpwr scs8hd_tapvpwrvgnd_1
XPHY_362 vgnd vpwr scs8hd_tapvpwrvgnd_1
XPHY_351 vgnd vpwr scs8hd_tapvpwrvgnd_1
XFILLER_31_337 vpwr vgnd scs8hd_fill_2
XPHY_340 vgnd vpwr scs8hd_tapvpwrvgnd_1
XANTENNA_ltile_clb_mode_0.ltile_clb_fle_4.ltile_fabric_0.mux_ff_0_D_0.mux_l1_in_0__A0
+ ltile_clb_mode_0.ltile_clb_fle_4.ltile_fabric_0.mux_ff_0_D_0.mux_l1_in_0_/A0 vgnd
+ vpwr scs8hd_diode_2
XANTENNA_ltile_clb_mode_0.ltile_clb_fle_1.ltile_fabric_0.ltile_clb_frac_logic_0.ltile_clb_md_fle_mp_fab_md_flogic_md_frac_lut4_0.frac_lut4_0_.frac_lut4_mux_0_.mux_l2_in_1__A0
+ ltile_clb_mode_0.ltile_clb_fle_1.ltile_fabric_0.ltile_clb_frac_logic_0.ltile_clb_md_fle_mp_fab_md_flogic_md_frac_lut4_0.frac_lut4_0_.frac_lut4_mux_0_.mux_l1_in_3_/X
+ vgnd vpwr scs8hd_diode_2
XFILLER_6_89 vgnd vpwr scs8hd_fill_1
XFILLER_39_404 vgnd vpwr scs8hd_decap_3
Xltile_clb_mode_0.ltile_clb_fle_5.ltile_fabric_0.ltile_clb_frac_logic_0.ltile_clb_md_fle_mp_fab_md_flogic_md_frac_lut4_0.frac_lut4_0_.frac_lut4_mux_0_.mux_l3_in_1_
+ ltile_clb_mode_0.ltile_clb_fle_5.ltile_fabric_0.ltile_clb_frac_logic_0.ltile_clb_md_fle_mp_fab_md_flogic_md_frac_lut4_0.frac_lut4_0_.frac_lut4_mux_0_.mux_l3_in_1_/A0
+ ltile_clb_mode_0.ltile_clb_fle_5.ltile_fabric_0.ltile_clb_frac_logic_0.ltile_clb_md_fle_mp_fab_md_flogic_md_frac_lut4_0.frac_lut4_0_.frac_lut4_mux_0_.mux_l3_in_1_/A1
+ ltile_clb_mode_0.ltile_clb_fle_5.ltile_fabric_0.ltile_clb_frac_logic_0.ltile_clb_md_fle_mp_fab_md_flogic_md_frac_lut4_0.frac_lut4_0_.scs8hd_buf_2_2_/X
+ ltile_clb_mode_0.ltile_clb_fle_5.ltile_fabric_0.ltile_clb_frac_logic_0.ltile_clb_md_fle_mp_fab_md_flogic_md_frac_lut4_0.frac_lut4_0_.frac_lut4_mux_0_.mux_l3_in_1_/X
+ vgnd vpwr scs8hd_mux2_1
XFILLER_13_3 vgnd vpwr scs8hd_decap_12
XFILLER_57_245 vgnd vpwr scs8hd_decap_12
XFILLER_25_175 vpwr vgnd scs8hd_fill_2
XFILLER_17_109 vgnd vpwr scs8hd_fill_1
XFILLER_40_178 vgnd vpwr scs8hd_decap_12
XFILLER_21_392 vgnd vpwr scs8hd_decap_12
XANTENNA_ltile_clb_mode_0.ltile_clb_fle_4.ltile_fabric_0.ltile_clb_frac_logic_0.mux_frac_logic_out_0.mux_l2_in_0__A0
+ _35_/HI vgnd vpwr scs8hd_diode_2
XFILLER_13_348 vpwr vgnd scs8hd_fill_2
XFILLER_31_86 vgnd vpwr scs8hd_decap_12
Xltile_clb_mode_0.ltile_clb_fle_4.ltile_fabric_0.ltile_clb_frac_logic_0.ltile_clb_md_fle_mp_fab_md_flogic_md_frac_lut4_0.frac_lut4_0_.scs8hd_buf_2_3_
+ ltile_clb_mode_0.ltile_clb_fle_4.ltile_fabric_0.ltile_clb_frac_logic_0.ltile_clb_md_fle_mp_fab_md_flogic_md_frac_lut4_0.frac_lut4_0_.scs8hd_or2_1_0_/X
+ ltile_clb_mode_0.ltile_clb_fle_4.ltile_fabric_0.ltile_clb_frac_logic_0.ltile_clb_md_fle_mp_fab_md_flogic_md_frac_lut4_0.frac_lut4_0_.scs8hd_buf_2_3_/X
+ vgnd vpwr scs8hd_buf_2
XFILLER_31_123 vgnd vpwr scs8hd_decap_12
XPHY_170 vgnd vpwr scs8hd_tapvpwrvgnd_1
XPHY_181 vgnd vpwr scs8hd_tapvpwrvgnd_1
XPHY_192 vgnd vpwr scs8hd_tapvpwrvgnd_1
XFILLER_8_385 vgnd vpwr scs8hd_decap_12
XANTENNA_ltile_clb_mode_0.ltile_clb_fle_2.ltile_fabric_0.ltile_clb_frac_logic_0.ltile_clb_md_fle_mp_fab_md_flogic_md_frac_lut4_0.frac_lut4_0_.frac_lut4_mux_0_.mux_l1_in_3__S
+ ltile_clb_mode_0.ltile_clb_fle_2.ltile_fabric_0.ltile_clb_frac_logic_0.ltile_clb_md_fle_mp_fab_md_flogic_md_frac_lut4_0.frac_lut4_0_.scs8hd_buf_2_0_/X
+ vgnd vpwr scs8hd_diode_2
XFILLER_54_215 vgnd vpwr scs8hd_decap_12
XFILLER_39_245 vgnd vpwr scs8hd_decap_8
Xltile_clb_mode_0.ltile_clb_fle_4.ltile_fabric_0.ltile_clb_frac_logic_0.ltile_clb_md_fle_mp_fab_md_flogic_md_frac_lut4_0.frac_lut4_0_.frac_lut4_mux_0_.mux_l1_in_0_
+ ltile_clb_mode_0.ltile_clb_fle_4.ltile_fabric_0.ltile_clb_frac_logic_0.ltile_clb_md_fle_mp_fab_md_flogic_md_frac_lut4_0.frac_lut4_0_.frac_lut4_mux_0_.mux_l1_in_0_/A0
+ ltile_clb_mode_0.ltile_clb_fle_4.ltile_fabric_0.ltile_clb_frac_logic_0.ltile_clb_md_fle_mp_fab_md_flogic_md_frac_lut4_0.frac_lut4_0_.frac_lut4_mux_0_.mux_l1_in_0_/A1
+ ltile_clb_mode_0.ltile_clb_fle_4.ltile_fabric_0.ltile_clb_frac_logic_0.ltile_clb_md_fle_mp_fab_md_flogic_md_frac_lut4_0.frac_lut4_0_.scs8hd_buf_2_0_/X
+ ltile_clb_mode_0.ltile_clb_fle_4.ltile_fabric_0.ltile_clb_frac_logic_0.ltile_clb_md_fle_mp_fab_md_flogic_md_frac_lut4_0.frac_lut4_0_.frac_lut4_mux_0_.mux_l1_in_0_/X
+ vgnd vpwr scs8hd_mux2_1
XANTENNA_ltile_clb_mode_0.ltile_clb_fle_1.ltile_fabric_0.ltile_clb_frac_logic_0.ltile_clb_md_fle_mp_fab_md_flogic_md_frac_lut4_0.frac_lut4_0_.scs8hd_buf_2_3__A
+ ltile_clb_mode_0.ltile_clb_fle_1.ltile_fabric_0.ltile_clb_frac_logic_0.ltile_clb_md_fle_mp_fab_md_flogic_md_frac_lut4_0.frac_lut4_0_.scs8hd_buf_2_3_/A
+ vgnd vpwr scs8hd_diode_2
XANTENNA_ltile_clb_mode_0.ltile_clb_fle_5.ltile_fabric_0.ltile_clb_frac_logic_0.ltile_clb_md_fle_mp_fab_md_flogic_md_frac_lut4_0.frac_lut4_0_.frac_lut4_mux_0_.mux_l2_in_1__S
+ ltile_clb_mode_0.ltile_clb_fle_5.ltile_fabric_0.ltile_clb_frac_logic_0.ltile_clb_md_fle_mp_fab_md_flogic_md_frac_lut4_0.frac_lut4_0_.scs8hd_buf_2_1_/X
+ vgnd vpwr scs8hd_diode_2
XANTENNA_ltile_clb_mode_0.ltile_clb_fle_1.ltile_fabric_0.ltile_clb_frac_logic_0.ltile_clb_md_fle_mp_fab_md_flogic_md_frac_lut4_0.frac_lut4_0_.frac_lut4_mux_0_.mux_l3_in_0__A0
+ ltile_clb_mode_0.ltile_clb_fle_1.ltile_fabric_0.ltile_clb_frac_logic_0.ltile_clb_md_fle_mp_fab_md_flogic_md_frac_lut4_0.frac_lut4_0_.frac_lut4_mux_0_.mux_l3_in_0_/A0
+ vgnd vpwr scs8hd_diode_2
XFILLER_26_64 vgnd vpwr scs8hd_fill_1
XFILLER_13_123 vgnd vpwr scs8hd_decap_3
Xltile_clb_mode_0.ltile_clb_fle_7.ltile_fabric_0.mux_ff_0_D_0.mux_l1_in_0_ ltile_clb_mode_0.ltile_clb_fle_7.ltile_fabric_0.mux_ff_0_D_0.mux_l1_in_0_/A0
+ ltile_clb_mode_0.ltile_clb_fle_7.ltile_fabric_0.mux_ff_0_D_0.mux_l1_in_0_/A1 ltile_clb_mode_0.ltile_clb_fle_7.ltile_fabric_0.mux_ff_0_D_0.mux_l1_in_0_/S
+ ltile_clb_mode_0.ltile_clb_fle_7.ltile_fabric_0.mux_ff_0_D_0.mux_l1_in_0_/X vgnd
+ vpwr scs8hd_mux2_1
XFILLER_5_355 vpwr vgnd scs8hd_fill_2
XFILLER_9_127 vpwr vgnd scs8hd_fill_2
XANTENNA_ltile_clb_mode_0.ltile_clb_fle_0.ltile_fabric_0.mux_fabric_out_1.mux_l2_in_0__S
+ ltile_clb_mode_0.ltile_clb_fle_0.ltile_fabric_0.mux_fabric_out_1.mux_l2_in_0_/S
+ vgnd vpwr scs8hd_diode_2
XFILLER_3_57 vpwr vgnd scs8hd_fill_2
Xltile_clb_mode_0.ltile_clb_fle_5.ltile_fabric_0.ltile_clb_frac_logic_0.ltile_clb_md_fle_mp_fab_md_flogic_md_frac_lut4_0.frac_lut4_0_.frac_lut4_mux_0_.mux_l2_in_2_
+ ltile_clb_mode_0.ltile_clb_fle_5.ltile_fabric_0.ltile_clb_frac_logic_0.ltile_clb_md_fle_mp_fab_md_flogic_md_frac_lut4_0.frac_lut4_0_.frac_lut4_mux_0_.mux_l1_in_5_/X
+ ltile_clb_mode_0.ltile_clb_fle_5.ltile_fabric_0.ltile_clb_frac_logic_0.ltile_clb_md_fle_mp_fab_md_flogic_md_frac_lut4_0.frac_lut4_0_.frac_lut4_mux_0_.mux_l1_in_4_/X
+ ltile_clb_mode_0.ltile_clb_fle_5.ltile_fabric_0.ltile_clb_frac_logic_0.ltile_clb_md_fle_mp_fab_md_flogic_md_frac_lut4_0.frac_lut4_0_.scs8hd_buf_2_1_/X