* NGSPICE file created from grid_io_top.ext - technology: EFS8A

* Black-box entry subcircuit for scs8hd_decap_12 abstract view
.subckt scs8hd_decap_12 vgnd vpwr
.ends

* Black-box entry subcircuit for scs8hd_decap_6 abstract view
.subckt scs8hd_decap_6 vgnd vpwr
.ends

* Black-box entry subcircuit for scs8hd_decap_8 abstract view
.subckt scs8hd_decap_8 vgnd vpwr
.ends

* Black-box entry subcircuit for scs8hd_diode_2 abstract view
.subckt scs8hd_diode_2 DIODE vgnd vpwr
.ends

* Black-box entry subcircuit for scs8hd_tapvpwrvgnd_1 abstract view
.subckt scs8hd_tapvpwrvgnd_1 vgnd vpwr
.ends

* Black-box entry subcircuit for scs8hd_decap_3 abstract view
.subckt scs8hd_decap_3 vgnd vpwr
.ends

* Black-box entry subcircuit for scs8hd_fill_1 abstract view
.subckt scs8hd_fill_1 vgnd vpwr
.ends

* Black-box entry subcircuit for scs8hd_fill_2 abstract view
.subckt scs8hd_fill_2 vpwr vgnd
.ends

* Black-box entry subcircuit for scs8hd_decap_4 abstract view
.subckt scs8hd_decap_4 vgnd vpwr
.ends

* Black-box entry subcircuit for scs8hd_dfxbp_1 abstract view
.subckt scs8hd_dfxbp_1 CLK D Q QN vgnd vpwr
.ends

* Black-box entry subcircuit for scs8hd_buf_2 abstract view
.subckt scs8hd_buf_2 A X vgnd vpwr
.ends

* Black-box entry subcircuit for scs8hd_inv_1 abstract view
.subckt scs8hd_inv_1 A Y vgnd vpwr
.ends

.subckt grid_io_top bottom_width_0_height_0__pin_0_ bottom_width_0_height_0__pin_1_lower
+ bottom_width_0_height_0__pin_1_upper ccff_head ccff_tail gfpga_pad_GPIO_A gfpga_pad_GPIO_IE
+ gfpga_pad_GPIO_OE gfpga_pad_GPIO_Y prog_clk vpwr vgnd
XFILLER_22_166 vgnd vpwr scs8hd_decap_12
XFILLER_9_159 vgnd vpwr scs8hd_decap_12
XFILLER_35_280 vgnd vpwr scs8hd_decap_12
XFILLER_27_269 vgnd vpwr scs8hd_decap_12
XFILLER_12_32 vgnd vpwr scs8hd_decap_12
XFILLER_6_129 vgnd vpwr scs8hd_decap_12
XFILLER_24_239 vgnd vpwr scs8hd_decap_12
XFILLER_5_184 vgnd vpwr scs8hd_decap_12
XFILLER_23_86 vgnd vpwr scs8hd_decap_12
XFILLER_14_250 vgnd vpwr scs8hd_decap_12
XFILLER_2_154 vgnd vpwr scs8hd_decap_12
XFILLER_11_220 vgnd vpwr scs8hd_decap_12
XFILLER_7_257 vgnd vpwr scs8hd_decap_12
XFILLER_29_74 vgnd vpwr scs8hd_decap_12
XFILLER_20_32 vgnd vpwr scs8hd_decap_12
XFILLER_4_227 vgnd vpwr scs8hd_decap_12
XFILLER_13_3 vgnd vpwr scs8hd_decap_12
XFILLER_3_293 vgnd vpwr scs8hd_decap_6
XFILLER_6_56 vgnd vpwr scs8hd_decap_12
XFILLER_15_98 vgnd vpwr scs8hd_decap_8
XANTENNA__2__A bottom_width_0_height_0__pin_0_ vgnd vpwr scs8hd_diode_2
XFILLER_1_208 vgnd vpwr scs8hd_decap_12
XFILLER_31_123 vgnd vpwr scs8hd_decap_12
XFILLER_31_86 vgnd vpwr scs8hd_decap_12
XPHY_192 vgnd vpwr scs8hd_tapvpwrvgnd_1
XPHY_181 vgnd vpwr scs8hd_tapvpwrvgnd_1
XPHY_170 vgnd vpwr scs8hd_tapvpwrvgnd_1
XFILLER_22_178 vgnd vpwr scs8hd_decap_12
XFILLER_13_123 vgnd vpwr scs8hd_decap_12
XFILLER_35_292 vgnd vpwr scs8hd_decap_6
XFILLER_18_215 vgnd vpwr scs8hd_decap_12
XFILLER_12_44 vgnd vpwr scs8hd_decap_12
XFILLER_17_281 vgnd vpwr scs8hd_decap_12
XFILLER_5_196 vgnd vpwr scs8hd_decap_12
XFILLER_32_251 vgnd vpwr scs8hd_decap_12
XFILLER_23_98 vgnd vpwr scs8hd_decap_12
XFILLER_14_262 vgnd vpwr scs8hd_decap_12
XFILLER_2_166 vgnd vpwr scs8hd_decap_12
XFILLER_20_276 vgnd vpwr scs8hd_decap_12
XFILLER_18_32 vgnd vpwr scs8hd_decap_12
XFILLER_11_232 vgnd vpwr scs8hd_decap_12
XFILLER_7_269 vgnd vpwr scs8hd_decap_12
XFILLER_29_86 vgnd vpwr scs8hd_decap_12
XFILLER_20_44 vgnd vpwr scs8hd_decap_12
XFILLER_4_239 vgnd vpwr scs8hd_decap_12
XFILLER_19_184 vgnd vpwr scs8hd_decap_12
XFILLER_6_68 vgnd vpwr scs8hd_decap_12
XFILLER_34_154 vgnd vpwr scs8hd_decap_12
XFILLER_25_110 vgnd vpwr scs8hd_decap_12
XFILLER_31_135 vgnd vpwr scs8hd_decap_12
XFILLER_31_98 vgnd vpwr scs8hd_decap_12
XPHY_193 vgnd vpwr scs8hd_tapvpwrvgnd_1
XPHY_182 vgnd vpwr scs8hd_tapvpwrvgnd_1
XPHY_171 vgnd vpwr scs8hd_tapvpwrvgnd_1
XPHY_160 vgnd vpwr scs8hd_tapvpwrvgnd_1
XFILLER_16_154 vgnd vpwr scs8hd_decap_12
XFILLER_30_190 vgnd vpwr scs8hd_decap_12
XFILLER_26_32 vgnd vpwr scs8hd_decap_12
XFILLER_13_135 vgnd vpwr scs8hd_decap_12
XFILLER_12_190 vgnd vpwr scs8hd_decap_12
XFILLER_12_56 vgnd vpwr scs8hd_decap_12
XFILLER_10_105 vgnd vpwr scs8hd_decap_12
XFILLER_33_208 vgnd vpwr scs8hd_decap_12
XFILLER_18_227 vgnd vpwr scs8hd_decap_12
XFILLER_32_296 vgnd vpwr scs8hd_decap_3
XFILLER_32_263 vgnd vpwr scs8hd_decap_12
XFILLER_17_293 vgnd vpwr scs8hd_decap_6
XFILLER_15_208 vgnd vpwr scs8hd_decap_12
XFILLER_14_274 vgnd vpwr scs8hd_fill_1
XFILLER_0_15 vgnd vpwr scs8hd_decap_12
XFILLER_2_178 vgnd vpwr scs8hd_decap_12
XFILLER_3_3 vgnd vpwr scs8hd_decap_12
XFILLER_14_296 vgnd vpwr scs8hd_decap_3
XFILLER_34_32 vgnd vpwr scs8hd_decap_12
XFILLER_20_288 vgnd vpwr scs8hd_decap_8
XFILLER_18_44 vgnd vpwr scs8hd_decap_12
XFILLER_20_56 vgnd vpwr scs8hd_decap_12
XFILLER_29_98 vgnd vpwr scs8hd_decap_12
XFILLER_28_141 vgnd vpwr scs8hd_decap_12
XFILLER_34_166 vgnd vpwr scs8hd_decap_12
XFILLER_19_196 vgnd vpwr scs8hd_decap_12
XFILLER_16_166 vgnd vpwr scs8hd_decap_12
XFILLER_0_298 vgnd vpwr scs8hd_fill_1
XFILLER_31_147 vgnd vpwr scs8hd_decap_12
XPHY_194 vgnd vpwr scs8hd_tapvpwrvgnd_1
XPHY_183 vgnd vpwr scs8hd_tapvpwrvgnd_1
XPHY_172 vgnd vpwr scs8hd_tapvpwrvgnd_1
XPHY_161 vgnd vpwr scs8hd_tapvpwrvgnd_1
XPHY_150 vgnd vpwr scs8hd_tapvpwrvgnd_1
XFILLER_26_44 vgnd vpwr scs8hd_decap_12
XFILLER_13_147 vgnd vpwr scs8hd_decap_12
XFILLER_3_15 vgnd vpwr scs8hd_decap_12
XFILLER_3_59 vpwr vgnd scs8hd_fill_2
XFILLER_35_261 vgnd vpwr scs8hd_decap_12
XFILLER_12_68 vgnd vpwr scs8hd_decap_12
XFILLER_10_117 vgnd vpwr scs8hd_decap_12
XFILLER_18_239 vgnd vpwr scs8hd_decap_12
XFILLER_5_110 vgnd vpwr scs8hd_decap_12
XFILLER_4_80 vgnd vpwr scs8hd_decap_12
XFILLER_23_220 vgnd vpwr scs8hd_decap_12
XFILLER_0_27 vgnd vpwr scs8hd_decap_4
XFILLER_29_3 vgnd vpwr scs8hd_decap_12
XFILLER_34_44 vgnd vpwr scs8hd_decap_12
XFILLER_18_56 vgnd vpwr scs8hd_decap_12
XFILLER_11_245 vgnd vpwr scs8hd_decap_12
XFILLER_20_68 vgnd vpwr scs8hd_decap_12
XFILLER_6_15 vgnd vpwr scs8hd_decap_12
XFILLER_34_178 vgnd vpwr scs8hd_decap_12
XFILLER_25_123 vgnd vpwr scs8hd_decap_12
XFILLER_0_211 vgnd vpwr scs8hd_decap_6
XFILLER_31_159 vgnd vpwr scs8hd_decap_12
XPHY_195 vgnd vpwr scs8hd_tapvpwrvgnd_1
XPHY_184 vgnd vpwr scs8hd_tapvpwrvgnd_1
XPHY_173 vgnd vpwr scs8hd_tapvpwrvgnd_1
XPHY_162 vgnd vpwr scs8hd_tapvpwrvgnd_1
XPHY_151 vgnd vpwr scs8hd_tapvpwrvgnd_1
XFILLER_16_178 vgnd vpwr scs8hd_decap_12
XPHY_140 vgnd vpwr scs8hd_tapvpwrvgnd_1
XFILLER_11_3 vgnd vpwr scs8hd_decap_12
XFILLER_26_56 vgnd vpwr scs8hd_decap_12
XFILLER_29_281 vgnd vpwr scs8hd_decap_12
XFILLER_13_159 vgnd vpwr scs8hd_decap_12
XFILLER_3_27 vgnd vpwr scs8hd_decap_12
XFILLER_35_273 vgnd vpwr scs8hd_decap_6
XFILLER_8_141 vgnd vpwr scs8hd_decap_12
XFILLER_10_129 vgnd vpwr scs8hd_decap_12
XFILLER_26_251 vgnd vpwr scs8hd_decap_12
XFILLER_32_276 vgnd vpwr scs8hd_decap_12
XFILLER_23_232 vgnd vpwr scs8hd_decap_12
XFILLER_14_276 vgnd vpwr scs8hd_decap_12
XFILLER_9_15 vgnd vpwr scs8hd_decap_12
XFILLER_9_59 vpwr vgnd scs8hd_fill_2
XFILLER_20_202 vgnd vpwr scs8hd_decap_12
XFILLER_18_68 vgnd vpwr scs8hd_decap_12
XFILLER_34_56 vgnd vpwr scs8hd_decap_12
XFILLER_11_257 vgnd vpwr scs8hd_decap_12
XFILLER_28_154 vgnd vpwr scs8hd_decap_12
XFILLER_19_110 vgnd vpwr scs8hd_decap_12
XFILLER_3_220 vgnd vpwr scs8hd_decap_12
XFILLER_6_27 vgnd vpwr scs8hd_decap_4
XFILLER_10_80 vgnd vpwr scs8hd_decap_12
XFILLER_25_135 vgnd vpwr scs8hd_decap_12
XANTENNA_logical_tile_io_mode_io__0.logical_tile_io_mode_physical__iopad_0.GPIO_scs8hd_dfxbp_1_mem.scs8hd_dfxbp_1_0__CLK
+ prog_clk vgnd vpwr scs8hd_diode_2
XPHY_196 vgnd vpwr scs8hd_tapvpwrvgnd_1
XFILLER_24_190 vgnd vpwr scs8hd_decap_12
XPHY_185 vgnd vpwr scs8hd_tapvpwrvgnd_1
XPHY_174 vgnd vpwr scs8hd_tapvpwrvgnd_1
XPHY_163 vgnd vpwr scs8hd_tapvpwrvgnd_1
XPHY_152 vgnd vpwr scs8hd_tapvpwrvgnd_1
XPHY_141 vgnd vpwr scs8hd_tapvpwrvgnd_1
XPHY_130 vgnd vpwr scs8hd_tapvpwrvgnd_1
XFILLER_22_105 vgnd vpwr scs8hd_decap_12
XFILLER_29_293 vgnd vpwr scs8hd_decap_6
XFILLER_26_68 vgnd vpwr scs8hd_decap_12
XFILLER_21_171 vgnd vpwr scs8hd_decap_12
XFILLER_3_39 vgnd vpwr scs8hd_decap_12
XFILLER_35_230 vgnd vpwr scs8hd_decap_12
XFILLER_27_208 vgnd vpwr scs8hd_decap_12
XFILLER_26_296 vgnd vpwr scs8hd_decap_3
XFILLER_26_263 vgnd vpwr scs8hd_decap_12
XFILLER_12_15 vgnd vpwr scs8hd_decap_12
XFILLER_32_288 vgnd vpwr scs8hd_decap_8
XFILLER_5_123 vgnd vpwr scs8hd_decap_12
XFILLER_4_93 vgnd vpwr scs8hd_decap_12
XFILLER_14_288 vgnd vpwr scs8hd_decap_8
XFILLER_9_27 vgnd vpwr scs8hd_decap_12
XFILLER_9_281 vgnd vpwr scs8hd_decap_12
XFILLER_34_68 vgnd vpwr scs8hd_decap_12
XFILLER_11_269 vgnd vpwr scs8hd_decap_12
XFILLER_1_3 vgnd vpwr scs8hd_decap_12
XFILLER_34_3 vgnd vpwr scs8hd_decap_12
XFILLER_6_251 vgnd vpwr scs8hd_decap_12
XFILLER_28_166 vgnd vpwr scs8hd_decap_12
XFILLER_20_15 vgnd vpwr scs8hd_decap_12
XFILLER_3_232 vgnd vpwr scs8hd_decap_12
XFILLER_25_147 vgnd vpwr scs8hd_decap_12
XFILLER_15_59 vpwr vgnd scs8hd_fill_2
XFILLER_15_15 vgnd vpwr scs8hd_decap_12
XPHY_197 vgnd vpwr scs8hd_tapvpwrvgnd_1
XPHY_186 vgnd vpwr scs8hd_tapvpwrvgnd_1
XPHY_175 vgnd vpwr scs8hd_tapvpwrvgnd_1
XPHY_164 vgnd vpwr scs8hd_tapvpwrvgnd_1
XPHY_153 vgnd vpwr scs8hd_tapvpwrvgnd_1
XPHY_142 vgnd vpwr scs8hd_tapvpwrvgnd_1
XPHY_131 vgnd vpwr scs8hd_tapvpwrvgnd_1
XFILLER_0_224 vpwr vgnd scs8hd_fill_2
XPHY_120 vgnd vpwr scs8hd_tapvpwrvgnd_1
XFILLER_22_117 vgnd vpwr scs8hd_decap_12
XPHY_0 vgnd vpwr scs8hd_decap_3
XFILLER_16_80 vgnd vpwr scs8hd_decap_12
XFILLER_8_154 vgnd vpwr scs8hd_decap_12
XFILLER_35_242 vgnd vpwr scs8hd_decap_6
XFILLER_12_27 vgnd vpwr scs8hd_decap_4
XFILLER_17_220 vgnd vpwr scs8hd_decap_12
XFILLER_5_135 vgnd vpwr scs8hd_decap_12
XFILLER_23_245 vgnd vpwr scs8hd_decap_12
XFILLER_23_59 vpwr vgnd scs8hd_fill_2
XFILLER_23_15 vgnd vpwr scs8hd_decap_12
XFILLER_4_190 vgnd vpwr scs8hd_decap_12
XFILLER_2_105 vgnd vpwr scs8hd_decap_12
XFILLER_9_39 vgnd vpwr scs8hd_decap_12
XFILLER_20_215 vgnd vpwr scs8hd_decap_12
XFILLER_1_171 vgnd vpwr scs8hd_decap_12
XFILLER_9_293 vgnd vpwr scs8hd_decap_6
XFILLER_18_15 vgnd vpwr scs8hd_decap_12
XFILLER_7_208 vgnd vpwr scs8hd_decap_12
XFILLER_27_3 vgnd vpwr scs8hd_decap_12
XFILLER_24_80 vgnd vpwr scs8hd_decap_12
XFILLER_6_263 vgnd vpwr scs8hd_decap_12
XFILLER_6_296 vgnd vpwr scs8hd_decap_3
XFILLER_20_27 vgnd vpwr scs8hd_decap_4
XFILLER_1_62 vgnd vpwr scs8hd_decap_12
XFILLER_1_51 vgnd vpwr scs8hd_decap_8
XFILLER_28_178 vgnd vpwr scs8hd_decap_12
XFILLER_19_123 vgnd vpwr scs8hd_decap_12
XFILLER_10_93 vgnd vpwr scs8hd_decap_12
XFILLER_25_159 vgnd vpwr scs8hd_decap_12
XFILLER_15_27 vgnd vpwr scs8hd_decap_12
XFILLER_31_59 vpwr vgnd scs8hd_fill_2
XFILLER_31_15 vgnd vpwr scs8hd_decap_12
XPHY_198 vgnd vpwr scs8hd_tapvpwrvgnd_1
XPHY_187 vgnd vpwr scs8hd_tapvpwrvgnd_1
XPHY_176 vgnd vpwr scs8hd_tapvpwrvgnd_1
XPHY_165 vgnd vpwr scs8hd_tapvpwrvgnd_1
XPHY_154 vgnd vpwr scs8hd_tapvpwrvgnd_1
XPHY_143 vgnd vpwr scs8hd_tapvpwrvgnd_1
XPHY_132 vgnd vpwr scs8hd_tapvpwrvgnd_1
XFILLER_0_236 vpwr vgnd scs8hd_fill_2
XPHY_110 vgnd vpwr scs8hd_tapvpwrvgnd_1
XPHY_121 vgnd vpwr scs8hd_tapvpwrvgnd_1
XFILLER_30_162 vgnd vpwr scs8hd_fill_1
XFILLER_22_129 vgnd vpwr scs8hd_decap_12
XPHY_1 vgnd vpwr scs8hd_decap_3
XFILLER_26_15 vgnd vpwr scs8hd_decap_12
XFILLER_21_184 vgnd vpwr scs8hd_decap_12
XFILLER_32_80 vgnd vpwr scs8hd_decap_12
XFILLER_8_166 vgnd vpwr scs8hd_decap_12
XFILLER_35_298 vgnd vpwr scs8hd_fill_1
XFILLER_26_276 vgnd vpwr scs8hd_decap_12
XFILLER_5_147 vgnd vpwr scs8hd_decap_12
XFILLER_32_202 vgnd vpwr scs8hd_decap_12
XFILLER_17_232 vgnd vpwr scs8hd_decap_12
XFILLER_23_257 vgnd vpwr scs8hd_decap_12
XFILLER_23_27 vgnd vpwr scs8hd_decap_12
XFILLER_14_202 vgnd vpwr scs8hd_decap_12
XFILLER_2_117 vgnd vpwr scs8hd_decap_12
XFILLER_20_227 vgnd vpwr scs8hd_decap_12
XFILLER_34_15 vgnd vpwr scs8hd_decap_12
XFILLER_18_27 vgnd vpwr scs8hd_decap_4
XFILLER_29_15 vgnd vpwr scs8hd_decap_12
XFILLER_1_74 vgnd vpwr scs8hd_decap_12
XFILLER_29_59 vpwr vgnd scs8hd_fill_2
XFILLER_3_245 vgnd vpwr scs8hd_decap_12
XFILLER_34_105 vgnd vpwr scs8hd_decap_12
XFILLER_19_135 vgnd vpwr scs8hd_decap_12
XFILLER_33_171 vgnd vpwr scs8hd_decap_12
XFILLER_31_27 vgnd vpwr scs8hd_decap_12
XFILLER_18_190 vgnd vpwr scs8hd_decap_12
XFILLER_16_105 vgnd vpwr scs8hd_decap_12
XFILLER_15_39 vgnd vpwr scs8hd_decap_12
XPHY_100 vgnd vpwr scs8hd_tapvpwrvgnd_1
XPHY_199 vgnd vpwr scs8hd_tapvpwrvgnd_1
XPHY_188 vgnd vpwr scs8hd_tapvpwrvgnd_1
XPHY_177 vgnd vpwr scs8hd_tapvpwrvgnd_1
XPHY_166 vgnd vpwr scs8hd_tapvpwrvgnd_1
XPHY_155 vgnd vpwr scs8hd_tapvpwrvgnd_1
XFILLER_15_171 vgnd vpwr scs8hd_decap_12
XPHY_144 vgnd vpwr scs8hd_tapvpwrvgnd_1
XPHY_133 vgnd vpwr scs8hd_tapvpwrvgnd_1
XPHY_2 vgnd vpwr scs8hd_decap_3
XPHY_111 vgnd vpwr scs8hd_tapvpwrvgnd_1
XPHY_122 vgnd vpwr scs8hd_tapvpwrvgnd_1
XFILLER_30_141 vgnd vpwr scs8hd_decap_12
XFILLER_26_27 vgnd vpwr scs8hd_decap_4
XFILLER_21_196 vgnd vpwr scs8hd_decap_12
XFILLER_7_51 vgnd vpwr scs8hd_decap_8
XFILLER_7_62 vgnd vpwr scs8hd_decap_12
XFILLER_16_93 vgnd vpwr scs8hd_decap_12
XFILLER_12_141 vgnd vpwr scs8hd_decap_12
XFILLER_8_178 vgnd vpwr scs8hd_decap_12
XFILLER_35_211 vgnd vpwr scs8hd_decap_6
XFILLER_26_288 vgnd vpwr scs8hd_decap_8
XFILLER_5_159 vgnd vpwr scs8hd_decap_12
XFILLER_23_269 vgnd vpwr scs8hd_decap_12
XFILLER_23_39 vgnd vpwr scs8hd_decap_12
XFILLER_2_129 vgnd vpwr scs8hd_decap_12
XFILLER_14_247 vgnd vpwr scs8hd_fill_1
XFILLER_1_184 vgnd vpwr scs8hd_decap_12
XFILLER_34_27 vgnd vpwr scs8hd_decap_4
XFILLER_20_239 vgnd vpwr scs8hd_decap_12
XFILLER_24_93 vgnd vpwr scs8hd_decap_12
XFILLER_1_86 vgnd vpwr scs8hd_decap_12
XFILLER_6_276 vgnd vpwr scs8hd_decap_12
XFILLER_29_27 vgnd vpwr scs8hd_decap_12
XFILLER_3_257 vgnd vpwr scs8hd_decap_12
XFILLER_34_117 vgnd vpwr scs8hd_decap_12
XFILLER_32_3 vgnd vpwr scs8hd_decap_12
XFILLER_19_147 vgnd vpwr scs8hd_decap_12
XFILLER_31_39 vgnd vpwr scs8hd_decap_12
XFILLER_0_249 vgnd vpwr scs8hd_decap_12
XPHY_189 vgnd vpwr scs8hd_tapvpwrvgnd_1
XPHY_178 vgnd vpwr scs8hd_tapvpwrvgnd_1
XPHY_167 vgnd vpwr scs8hd_tapvpwrvgnd_1
XPHY_156 vgnd vpwr scs8hd_tapvpwrvgnd_1
XFILLER_16_117 vgnd vpwr scs8hd_decap_12
XPHY_145 vgnd vpwr scs8hd_tapvpwrvgnd_1
XPHY_134 vgnd vpwr scs8hd_tapvpwrvgnd_1
XPHY_101 vgnd vpwr scs8hd_tapvpwrvgnd_1
XPHY_112 vgnd vpwr scs8hd_tapvpwrvgnd_1
XPHY_123 vgnd vpwr scs8hd_tapvpwrvgnd_1
XPHY_3 vgnd vpwr scs8hd_decap_3
XFILLER_7_74 vgnd vpwr scs8hd_decap_12
XFILLER_29_220 vgnd vpwr scs8hd_decap_12
XFILLER_32_93 vgnd vpwr scs8hd_decap_12
XFILLER_32_215 vgnd vpwr scs8hd_decap_12
XFILLER_17_245 vgnd vpwr scs8hd_decap_12
XFILLER_31_281 vgnd vpwr scs8hd_decap_12
XFILLER_14_215 vgnd vpwr scs8hd_decap_12
XFILLER_13_62 vgnd vpwr scs8hd_decap_12
XFILLER_13_51 vgnd vpwr scs8hd_decap_8
XFILLER_1_196 vgnd vpwr scs8hd_decap_12
XFILLER_13_281 vgnd vpwr scs8hd_decap_12
XFILLER_1_98 vgnd vpwr scs8hd_decap_12
XFILLER_6_288 vgnd vpwr scs8hd_decap_8
XFILLER_10_251 vgnd vpwr scs8hd_decap_12
XFILLER_29_39 vgnd vpwr scs8hd_decap_12
XFILLER_34_129 vgnd vpwr scs8hd_decap_12
XFILLER_19_159 vgnd vpwr scs8hd_decap_12
XFILLER_3_269 vgnd vpwr scs8hd_decap_12
XFILLER_33_184 vgnd vpwr scs8hd_decap_12
XFILLER_25_3 vgnd vpwr scs8hd_decap_12
XFILLER_0_228 vgnd vpwr scs8hd_decap_4
XPHY_179 vgnd vpwr scs8hd_tapvpwrvgnd_1
XFILLER_21_62 vgnd vpwr scs8hd_decap_12
XFILLER_21_51 vgnd vpwr scs8hd_decap_8
XPHY_168 vgnd vpwr scs8hd_tapvpwrvgnd_1
XPHY_157 vgnd vpwr scs8hd_tapvpwrvgnd_1
XFILLER_16_129 vgnd vpwr scs8hd_decap_12
XPHY_146 vgnd vpwr scs8hd_tapvpwrvgnd_1
XPHY_135 vgnd vpwr scs8hd_tapvpwrvgnd_1
XPHY_102 vgnd vpwr scs8hd_tapvpwrvgnd_1
XPHY_113 vgnd vpwr scs8hd_tapvpwrvgnd_1
XPHY_124 vgnd vpwr scs8hd_tapvpwrvgnd_1
XFILLER_30_154 vgnd vpwr scs8hd_decap_8
XFILLER_15_184 vgnd vpwr scs8hd_decap_12
XPHY_4 vgnd vpwr scs8hd_decap_3
XFILLER_7_86 vgnd vpwr scs8hd_decap_12
XFILLER_29_232 vgnd vpwr scs8hd_decap_12
XFILLER_21_110 vgnd vpwr scs8hd_decap_12
XFILLER_12_154 vgnd vpwr scs8hd_decap_12
XFILLER_26_202 vgnd vpwr scs8hd_decap_12
XFILLER_32_227 vgnd vpwr scs8hd_decap_12
XFILLER_17_257 vgnd vpwr scs8hd_decap_12
XFILLER_31_293 vgnd vpwr scs8hd_decap_6
XFILLER_4_32 vgnd vpwr scs8hd_decap_12
XFILLER_14_227 vgnd vpwr scs8hd_decap_12
XFILLER_13_74 vgnd vpwr scs8hd_decap_12
XFILLER_13_293 vgnd vpwr scs8hd_decap_6
XFILLER_9_220 vgnd vpwr scs8hd_decap_12
XFILLER_11_208 vgnd vpwr scs8hd_decap_12
XFILLER_10_263 vgnd vpwr scs8hd_decap_12
XFILLER_10_296 vgnd vpwr scs8hd_decap_3
XFILLER_28_105 vgnd vpwr scs8hd_decap_12
XFILLER_35_94 vgnd vpwr scs8hd_decap_12
XFILLER_27_171 vgnd vpwr scs8hd_decap_12
XFILLER_19_62 vgnd vpwr scs8hd_decap_12
XFILLER_19_51 vgnd vpwr scs8hd_decap_8
XFILLER_33_196 vgnd vpwr scs8hd_decap_12
XFILLER_18_3 vgnd vpwr scs8hd_decap_12
XFILLER_24_141 vgnd vpwr scs8hd_decap_12
XFILLER_21_74 vgnd vpwr scs8hd_decap_12
XPHY_169 vgnd vpwr scs8hd_tapvpwrvgnd_1
XPHY_158 vgnd vpwr scs8hd_tapvpwrvgnd_1
XPHY_147 vgnd vpwr scs8hd_tapvpwrvgnd_1
XPHY_136 vgnd vpwr scs8hd_tapvpwrvgnd_1
XFILLER_0_218 vpwr vgnd scs8hd_fill_2
XPHY_103 vgnd vpwr scs8hd_tapvpwrvgnd_1
XPHY_114 vgnd vpwr scs8hd_tapvpwrvgnd_1
XPHY_125 vgnd vpwr scs8hd_tapvpwrvgnd_1
XFILLER_30_166 vgnd vpwr scs8hd_decap_12
XFILLER_15_196 vgnd vpwr scs8hd_decap_12
XPHY_5 vgnd vpwr scs8hd_decap_3
XFILLER_7_98 vgnd vpwr scs8hd_decap_12
XFILLER_12_166 vgnd vpwr scs8hd_decap_12
XFILLER_32_239 vgnd vpwr scs8hd_decap_12
XFILLER_27_62 vgnd vpwr scs8hd_decap_12
XFILLER_27_51 vgnd vpwr scs8hd_decap_8
XFILLER_17_269 vgnd vpwr scs8hd_decap_12
XFILLER_4_44 vgnd vpwr scs8hd_decap_12
XFILLER_14_239 vgnd vpwr scs8hd_decap_8
XFILLER_13_86 vgnd vpwr scs8hd_decap_12
XFILLER_1_110 vgnd vpwr scs8hd_decap_12
XFILLER_9_232 vgnd vpwr scs8hd_decap_12
XFILLER_6_202 vgnd vpwr scs8hd_decap_12
XFILLER_28_117 vgnd vpwr scs8hd_decap_12
Xlogical_tile_io_mode_io__0.logical_tile_io_mode_physical__iopad_0.GPIO_scs8hd_dfxbp_1_mem.scs8hd_dfxbp_1_0_
+ prog_clk ccff_head ccff_tail logical_tile_io_mode_io__0.logical_tile_io_mode_physical__iopad_0.GPIO_scs8hd_dfxbp_1_mem.scs8hd_dfxbp_1_0_/QN
+ vgnd vpwr scs8hd_dfxbp_1
XFILLER_19_74 vgnd vpwr scs8hd_decap_12
XFILLER_10_32 vgnd vpwr scs8hd_decap_12
XPHY_159 vgnd vpwr scs8hd_tapvpwrvgnd_1
XPHY_148 vgnd vpwr scs8hd_tapvpwrvgnd_1
XPHY_137 vgnd vpwr scs8hd_tapvpwrvgnd_1
XPHY_104 vgnd vpwr scs8hd_tapvpwrvgnd_1
XPHY_115 vgnd vpwr scs8hd_tapvpwrvgnd_1
XPHY_126 vgnd vpwr scs8hd_tapvpwrvgnd_1
XFILLER_30_178 vgnd vpwr scs8hd_decap_12
XFILLER_21_86 vgnd vpwr scs8hd_decap_12
XPHY_6 vgnd vpwr scs8hd_decap_3
XFILLER_30_3 vgnd vpwr scs8hd_decap_12
XFILLER_21_123 vgnd vpwr scs8hd_decap_12
XFILLER_29_245 vgnd vpwr scs8hd_decap_12
XFILLER_12_178 vgnd vpwr scs8hd_decap_12
XFILLER_8_105 vgnd vpwr scs8hd_decap_12
XFILLER_7_171 vgnd vpwr scs8hd_decap_12
XFILLER_26_215 vgnd vpwr scs8hd_decap_12
XFILLER_27_74 vgnd vpwr scs8hd_decap_12
XFILLER_25_281 vgnd vpwr scs8hd_decap_12
XFILLER_4_56 vgnd vpwr scs8hd_decap_12
XFILLER_4_141 vgnd vpwr scs8hd_decap_12
XFILLER_22_251 vgnd vpwr scs8hd_decap_12
XANTENNA__0__A gfpga_pad_GPIO_Y vgnd vpwr scs8hd_diode_2
XFILLER_13_98 vgnd vpwr scs8hd_decap_12
XFILLER_8_3 vgnd vpwr scs8hd_decap_12
XFILLER_10_276 vgnd vpwr scs8hd_decap_12
XFILLER_28_129 vgnd vpwr scs8hd_decap_12
XFILLER_10_44 vgnd vpwr scs8hd_decap_12
XFILLER_35_63 vgnd vpwr scs8hd_decap_12
XFILLER_27_184 vgnd vpwr scs8hd_decap_12
XFILLER_19_86 vgnd vpwr scs8hd_decap_12
XFILLER_33_110 vgnd vpwr scs8hd_decap_12
XPHY_105 vgnd vpwr scs8hd_tapvpwrvgnd_1
XPHY_116 vgnd vpwr scs8hd_tapvpwrvgnd_1
XFILLER_24_154 vgnd vpwr scs8hd_decap_12
XFILLER_21_98 vgnd vpwr scs8hd_decap_12
XPHY_149 vgnd vpwr scs8hd_tapvpwrvgnd_1
XPHY_138 vgnd vpwr scs8hd_tapvpwrvgnd_1
XPHY_127 vgnd vpwr scs8hd_tapvpwrvgnd_1
XPHY_7 vgnd vpwr scs8hd_decap_3
XFILLER_23_3 vgnd vpwr scs8hd_decap_12
XFILLER_21_135 vgnd vpwr scs8hd_decap_12
XFILLER_29_257 vgnd vpwr scs8hd_decap_12
XANTENNA__3__A ccff_tail vgnd vpwr scs8hd_diode_2
XFILLER_20_190 vgnd vpwr scs8hd_decap_12
XFILLER_16_32 vgnd vpwr scs8hd_decap_12
XFILLER_8_117 vgnd vpwr scs8hd_decap_12
XFILLER_35_249 vgnd vpwr scs8hd_decap_12
XFILLER_26_227 vgnd vpwr scs8hd_decap_12
XFILLER_27_86 vgnd vpwr scs8hd_decap_12
XFILLER_25_293 vgnd vpwr scs8hd_decap_6
XFILLER_4_68 vgnd vpwr scs8hd_decap_12
XFILLER_23_208 vgnd vpwr scs8hd_decap_12
XFILLER_22_296 vgnd vpwr scs8hd_decap_3
XFILLER_22_263 vgnd vpwr scs8hd_decap_12
XFILLER_1_123 vgnd vpwr scs8hd_decap_12
XFILLER_9_245 vgnd vpwr scs8hd_decap_12
XFILLER_24_32 vgnd vpwr scs8hd_decap_12
XFILLER_6_215 vgnd vpwr scs8hd_decap_12
XFILLER_10_288 vgnd vpwr scs8hd_decap_8
XFILLER_5_281 vgnd vpwr scs8hd_decap_12
XFILLER_10_56 vgnd vpwr scs8hd_decap_12
XFILLER_35_75 vgnd vpwr scs8hd_decap_12
XFILLER_27_196 vgnd vpwr scs8hd_decap_12
XFILLER_19_98 vgnd vpwr scs8hd_decap_12
XFILLER_2_251 vgnd vpwr scs8hd_decap_12
XFILLER_18_141 vgnd vpwr scs8hd_decap_12
XFILLER_24_166 vgnd vpwr scs8hd_decap_12
XPHY_139 vgnd vpwr scs8hd_tapvpwrvgnd_1
XPHY_128 vgnd vpwr scs8hd_tapvpwrvgnd_1
XPHY_106 vgnd vpwr scs8hd_tapvpwrvgnd_1
XPHY_117 vgnd vpwr scs8hd_tapvpwrvgnd_1
XFILLER_16_3 vgnd vpwr scs8hd_decap_12
XPHY_8 vgnd vpwr scs8hd_decap_3
XFILLER_29_269 vgnd vpwr scs8hd_decap_12
XFILLER_21_147 vgnd vpwr scs8hd_decap_12
XFILLER_16_44 vgnd vpwr scs8hd_decap_12
XFILLER_32_32 vgnd vpwr scs8hd_decap_12
XFILLER_8_129 vgnd vpwr scs8hd_decap_12
XFILLER_26_239 vgnd vpwr scs8hd_decap_12
XFILLER_7_184 vgnd vpwr scs8hd_decap_12
XFILLER_27_98 vgnd vpwr scs8hd_decap_12
XFILLER_4_154 vgnd vpwr scs8hd_decap_12
XFILLER_31_220 vgnd vpwr scs8hd_decap_12
XFILLER_16_250 vgnd vpwr scs8hd_decap_12
XFILLER_1_135 vgnd vpwr scs8hd_decap_12
XFILLER_13_220 vgnd vpwr scs8hd_decap_12
XFILLER_9_257 vgnd vpwr scs8hd_decap_12
XFILLER_24_44 vgnd vpwr scs8hd_decap_12
XFILLER_1_59 vpwr vgnd scs8hd_fill_2
XFILLER_1_15 vgnd vpwr scs8hd_decap_12
XFILLER_6_227 vgnd vpwr scs8hd_decap_12
XFILLER_5_293 vgnd vpwr scs8hd_decap_6
XFILLER_35_87 vgnd vpwr scs8hd_decap_6
XFILLER_35_32 vgnd vpwr scs8hd_decap_12
XFILLER_3_208 vgnd vpwr scs8hd_decap_12
XFILLER_10_68 vgnd vpwr scs8hd_decap_12
XFILLER_33_123 vgnd vpwr scs8hd_decap_12
XFILLER_2_263 vgnd vpwr scs8hd_decap_12
XFILLER_2_296 vgnd vpwr scs8hd_decap_3
XFILLER_24_178 vgnd vpwr scs8hd_decap_12
XPHY_129 vgnd vpwr scs8hd_tapvpwrvgnd_1
XFILLER_2_80 vgnd vpwr scs8hd_decap_12
XPHY_107 vgnd vpwr scs8hd_tapvpwrvgnd_1
XPHY_118 vgnd vpwr scs8hd_tapvpwrvgnd_1
XFILLER_15_123 vgnd vpwr scs8hd_decap_12
XFILLER_15_112 vpwr vgnd scs8hd_fill_2
XPHY_9 vgnd vpwr scs8hd_decap_3
XFILLER_21_159 vgnd vpwr scs8hd_decap_12
XFILLER_35_218 vgnd vpwr scs8hd_decap_12
XFILLER_32_44 vgnd vpwr scs8hd_decap_12
XFILLER_16_56 vgnd vpwr scs8hd_decap_12
XFILLER_34_251 vgnd vpwr scs8hd_decap_12
XFILLER_19_281 vgnd vpwr scs8hd_decap_12
XFILLER_7_196 vgnd vpwr scs8hd_decap_12
XFILLER_31_232 vgnd vpwr scs8hd_decap_12
XFILLER_16_262 vgnd vpwr scs8hd_decap_12
XFILLER_4_15 vgnd vpwr scs8hd_decap_12
XFILLER_4_166 vgnd vpwr scs8hd_decap_12
XFILLER_22_276 vgnd vpwr scs8hd_decap_12
XFILLER_1_147 vgnd vpwr scs8hd_decap_12
XFILLER_13_232 vgnd vpwr scs8hd_decap_12
XFILLER_0_180 vgnd vpwr scs8hd_decap_6
XFILLER_9_269 vgnd vpwr scs8hd_decap_12
XFILLER_24_56 vgnd vpwr scs8hd_decap_12
XFILLER_1_27 vgnd vpwr scs8hd_decap_12
XFILLER_6_3 vgnd vpwr scs8hd_decap_12
XFILLER_6_239 vgnd vpwr scs8hd_decap_12
XFILLER_10_202 vgnd vpwr scs8hd_decap_12
XFILLER_35_44 vgnd vpwr scs8hd_decap_12
XFILLER_27_110 vgnd vpwr scs8hd_decap_12
XFILLER_33_135 vgnd vpwr scs8hd_decap_12
XFILLER_18_154 vgnd vpwr scs8hd_decap_12
XFILLER_32_190 vgnd vpwr scs8hd_decap_12
XPHY_108 vgnd vpwr scs8hd_tapvpwrvgnd_1
XPHY_119 vgnd vpwr scs8hd_tapvpwrvgnd_1
XFILLER_30_105 vgnd vpwr scs8hd_decap_12
XFILLER_15_135 vgnd vpwr scs8hd_decap_12
XFILLER_7_15 vgnd vpwr scs8hd_decap_12
XFILLER_7_59 vpwr vgnd scs8hd_fill_2
XFILLER_14_190 vgnd vpwr scs8hd_decap_12
XFILLER_32_56 vgnd vpwr scs8hd_decap_12
XFILLER_16_68 vgnd vpwr scs8hd_decap_12
XFILLER_12_105 vgnd vpwr scs8hd_decap_12
XFILLER_21_3 vgnd vpwr scs8hd_decap_12
XFILLER_19_293 vgnd vpwr scs8hd_decap_6
XFILLER_11_171 vgnd vpwr scs8hd_decap_12
XFILLER_34_296 vgnd vpwr scs8hd_decap_3
XFILLER_34_263 vgnd vpwr scs8hd_decap_12
XFILLER_17_208 vgnd vpwr scs8hd_decap_12
XFILLER_8_80 vgnd vpwr scs8hd_decap_12
XFILLER_16_296 vgnd vpwr scs8hd_decap_3
XFILLER_16_274 vgnd vpwr scs8hd_fill_1
XFILLER_4_27 vgnd vpwr scs8hd_decap_4
XFILLER_4_178 vgnd vpwr scs8hd_decap_12
XFILLER_22_288 vgnd vpwr scs8hd_decap_8
XFILLER_1_159 vgnd vpwr scs8hd_decap_12
XFILLER_24_68 vgnd vpwr scs8hd_decap_12
XFILLER_1_39 vgnd vpwr scs8hd_decap_12
XFILLER_35_56 vgnd vpwr scs8hd_decap_6
XFILLER_10_15 vgnd vpwr scs8hd_decap_12
XFILLER_33_147 vgnd vpwr scs8hd_decap_12
XFILLER_18_166 vgnd vpwr scs8hd_decap_12
XFILLER_2_276 vgnd vpwr scs8hd_decap_12
XFILLER_2_93 vgnd vpwr scs8hd_decap_12
XPHY_109 vgnd vpwr scs8hd_tapvpwrvgnd_1
XFILLER_30_117 vgnd vpwr scs8hd_decap_12
XFILLER_15_147 vgnd vpwr scs8hd_decap_12
XFILLER_7_27 vgnd vpwr scs8hd_decap_12
XFILLER_32_68 vgnd vpwr scs8hd_decap_12
XFILLER_12_117 vgnd vpwr scs8hd_decap_12
XFILLER_14_3 vgnd vpwr scs8hd_decap_12
XFILLER_7_110 vgnd vpwr scs8hd_decap_12
XFILLER_25_220 vgnd vpwr scs8hd_decap_12
XFILLER_31_245 vgnd vpwr scs8hd_decap_12
XFILLER_13_15 vgnd vpwr scs8hd_decap_12
XFILLER_13_245 vgnd vpwr scs8hd_decap_12
XFILLER_13_59 vpwr vgnd scs8hd_fill_2
XFILLER_10_215 vgnd vpwr scs8hd_decap_12
XFILLER_14_80 vgnd vpwr scs8hd_decap_12
XFILLER_10_27 vgnd vpwr scs8hd_decap_4
XFILLER_27_123 vgnd vpwr scs8hd_decap_12
XFILLER_2_288 vgnd vpwr scs8hd_decap_8
XFILLER_33_159 vgnd vpwr scs8hd_decap_12
XFILLER_18_178 vgnd vpwr scs8hd_decap_12
XPHY_90 vgnd vpwr scs8hd_tapvpwrvgnd_1
XFILLER_30_129 vgnd vpwr scs8hd_decap_12
XFILLER_21_59 vpwr vgnd scs8hd_fill_2
XFILLER_21_15 vgnd vpwr scs8hd_decap_12
XFILLER_15_159 vgnd vpwr scs8hd_decap_12
XFILLER_7_39 vgnd vpwr scs8hd_decap_12
XFILLER_16_15 vgnd vpwr scs8hd_decap_12
XFILLER_12_129 vgnd vpwr scs8hd_decap_12
XFILLER_28_251 vgnd vpwr scs8hd_decap_12
XFILLER_22_80 vgnd vpwr scs8hd_decap_12
XFILLER_11_184 vgnd vpwr scs8hd_decap_12
XFILLER_34_276 vgnd vpwr scs8hd_decap_12
XFILLER_8_93 vgnd vpwr scs8hd_decap_12
XANTENNA_logical_tile_io_mode_io__0.logical_tile_io_mode_physical__iopad_0.GPIO_0_.ie_oe_inv_A
+ ccff_tail vgnd vpwr scs8hd_diode_2
XFILLER_25_232 vgnd vpwr scs8hd_decap_12
XFILLER_31_257 vgnd vpwr scs8hd_decap_12
XFILLER_16_276 vgnd vpwr scs8hd_decap_12
XFILLER_22_202 vgnd vpwr scs8hd_decap_12
XFILLER_13_27 vgnd vpwr scs8hd_decap_12
XFILLER_13_257 vgnd vpwr scs8hd_decap_12
XFILLER_24_15 vgnd vpwr scs8hd_decap_12
XFILLER_10_227 vgnd vpwr scs8hd_decap_12
XFILLER_5_220 vgnd vpwr scs8hd_decap_12
XFILLER_30_80 vgnd vpwr scs8hd_decap_12
X_3_ ccff_tail gfpga_pad_GPIO_IE vgnd vpwr scs8hd_buf_2
XFILLER_27_135 vgnd vpwr scs8hd_decap_12
XFILLER_19_59 vpwr vgnd scs8hd_fill_2
XFILLER_19_15 vgnd vpwr scs8hd_decap_12
XFILLER_4_3 vgnd vpwr scs8hd_decap_12
XFILLER_26_190 vgnd vpwr scs8hd_decap_12
XPHY_80 vgnd vpwr scs8hd_tapvpwrvgnd_1
XPHY_91 vgnd vpwr scs8hd_tapvpwrvgnd_1
XFILLER_24_105 vgnd vpwr scs8hd_decap_12
XFILLER_21_27 vgnd vpwr scs8hd_decap_12
XFILLER_15_116 vgnd vpwr scs8hd_decap_6
XFILLER_23_171 vgnd vpwr scs8hd_decap_12
XFILLER_32_15 vgnd vpwr scs8hd_decap_12
XFILLER_29_208 vgnd vpwr scs8hd_decap_12
XFILLER_20_141 vgnd vpwr scs8hd_decap_12
XFILLER_16_27 vgnd vpwr scs8hd_decap_4
XFILLER_28_296 vgnd vpwr scs8hd_decap_3
XFILLER_28_263 vgnd vpwr scs8hd_decap_12
XFILLER_11_196 vgnd vpwr scs8hd_decap_12
XFILLER_7_123 vgnd vpwr scs8hd_decap_12
XFILLER_34_288 vgnd vpwr scs8hd_decap_8
XFILLER_27_59 vpwr vgnd scs8hd_fill_2
XFILLER_27_15 vgnd vpwr scs8hd_decap_12
XFILLER_31_269 vgnd vpwr scs8hd_decap_12
XFILLER_16_288 vgnd vpwr scs8hd_decap_8
XFILLER_13_39 vgnd vpwr scs8hd_decap_12
XFILLER_28_80 vgnd vpwr scs8hd_decap_12
XFILLER_13_269 vgnd vpwr scs8hd_decap_12
XFILLER_24_27 vgnd vpwr scs8hd_decap_4
XFILLER_5_51 vgnd vpwr scs8hd_decap_8
XFILLER_5_62 vgnd vpwr scs8hd_decap_12
XFILLER_8_251 vgnd vpwr scs8hd_decap_12
XFILLER_10_239 vgnd vpwr scs8hd_decap_12
XFILLER_14_93 vgnd vpwr scs8hd_decap_12
XFILLER_5_232 vgnd vpwr scs8hd_decap_12
XFILLER_35_180 vgnd vpwr scs8hd_decap_6
XFILLER_35_15 vgnd vpwr scs8hd_decap_12
XFILLER_27_147 vgnd vpwr scs8hd_decap_12
XFILLER_19_27 vgnd vpwr scs8hd_decap_12
XFILLER_2_202 vgnd vpwr scs8hd_decap_12
XPHY_70 vgnd vpwr scs8hd_decap_3
X_2_ bottom_width_0_height_0__pin_0_ gfpga_pad_GPIO_A vgnd vpwr scs8hd_buf_2
XPHY_81 vgnd vpwr scs8hd_tapvpwrvgnd_1
XPHY_92 vgnd vpwr scs8hd_tapvpwrvgnd_1
XFILLER_24_117 vgnd vpwr scs8hd_decap_12
XFILLER_21_39 vgnd vpwr scs8hd_decap_12
XFILLER_15_106 vpwr vgnd scs8hd_fill_2
XFILLER_32_27 vgnd vpwr scs8hd_decap_4
XFILLER_22_93 vgnd vpwr scs8hd_decap_12
XFILLER_19_220 vgnd vpwr scs8hd_decap_12
XFILLER_7_135 vgnd vpwr scs8hd_decap_12
XFILLER_27_27 vgnd vpwr scs8hd_decap_12
XFILLER_25_245 vgnd vpwr scs8hd_decap_12
XFILLER_4_105 vgnd vpwr scs8hd_decap_12
XFILLER_6_190 vgnd vpwr scs8hd_decap_12
XPHY_240 vgnd vpwr scs8hd_tapvpwrvgnd_1
XFILLER_22_215 vgnd vpwr scs8hd_decap_12
XFILLER_12_3 vgnd vpwr scs8hd_decap_12
XFILLER_3_171 vgnd vpwr scs8hd_decap_12
XFILLER_21_281 vgnd vpwr scs8hd_decap_12
XFILLER_9_208 vgnd vpwr scs8hd_decap_12
XFILLER_5_74 vgnd vpwr scs8hd_decap_12
XFILLER_8_263 vgnd vpwr scs8hd_decap_12
XFILLER_8_296 vgnd vpwr scs8hd_decap_3
XFILLER_30_93 vgnd vpwr scs8hd_decap_12
XFILLER_35_27 vgnd vpwr scs8hd_decap_4
XFILLER_27_159 vgnd vpwr scs8hd_decap_12
XFILLER_19_39 vgnd vpwr scs8hd_decap_12
XPHY_71 vgnd vpwr scs8hd_decap_3
XPHY_60 vgnd vpwr scs8hd_decap_3
X_1_ gfpga_pad_GPIO_Y bottom_width_0_height_0__pin_1_upper vgnd vpwr scs8hd_buf_2
XPHY_82 vgnd vpwr scs8hd_tapvpwrvgnd_1
XPHY_93 vgnd vpwr scs8hd_tapvpwrvgnd_1
XFILLER_24_129 vgnd vpwr scs8hd_decap_12
XFILLER_23_184 vgnd vpwr scs8hd_decap_12
XFILLER_11_51 vgnd vpwr scs8hd_decap_8
XFILLER_11_62 vgnd vpwr scs8hd_decap_12
XFILLER_20_154 vgnd vpwr scs8hd_decap_12
XFILLER_34_202 vgnd vpwr scs8hd_decap_12
XFILLER_28_276 vgnd vpwr scs8hd_decap_12
XFILLER_19_232 vgnd vpwr scs8hd_decap_12
XFILLER_11_110 vgnd vpwr scs8hd_decap_12
XFILLER_7_147 vgnd vpwr scs8hd_decap_12
XFILLER_27_39 vgnd vpwr scs8hd_decap_12
XFILLER_25_257 vgnd vpwr scs8hd_decap_12
XPHY_241 vgnd vpwr scs8hd_tapvpwrvgnd_1
XPHY_230 vgnd vpwr scs8hd_tapvpwrvgnd_1
XFILLER_16_202 vgnd vpwr scs8hd_decap_12
XFILLER_4_117 vgnd vpwr scs8hd_decap_12
XFILLER_22_227 vgnd vpwr scs8hd_decap_12