* NGSPICE file created from grid_clb.ext - technology: sky130A

* Black-box entry subcircuit for sky130_fd_sc_hd__decap_12 abstract view
.subckt sky130_fd_sc_hd__decap_12 VGND VNB VPB VPWR
.ends

* Black-box entry subcircuit for sky130_fd_sc_hd__mux2_1 abstract view
.subckt sky130_fd_sc_hd__mux2_1 A0 A1 S X VGND VNB VPB VPWR
.ends

* Black-box entry subcircuit for sky130_fd_sc_hd__fill_1 abstract view
.subckt sky130_fd_sc_hd__fill_1 VGND VNB VPB VPWR
.ends

* Black-box entry subcircuit for sky130_fd_sc_hd__fill_2 abstract view
.subckt sky130_fd_sc_hd__fill_2 VGND VNB VPB VPWR
.ends

* Black-box entry subcircuit for sky130_fd_sc_hd__decap_4 abstract view
.subckt sky130_fd_sc_hd__decap_4 VGND VNB VPB VPWR
.ends

* Black-box entry subcircuit for sky130_fd_sc_hd__diode_2 abstract view
.subckt sky130_fd_sc_hd__diode_2 DIODE VGND VNB VPB VPWR
.ends

* Black-box entry subcircuit for sky130_fd_sc_hd__decap_8 abstract view
.subckt sky130_fd_sc_hd__decap_8 VGND VNB VPB VPWR
.ends

* Black-box entry subcircuit for sky130_fd_sc_hd__decap_6 abstract view
.subckt sky130_fd_sc_hd__decap_6 VGND VNB VPB VPWR
.ends

* Black-box entry subcircuit for sky130_fd_sc_hd__dfxbp_1 abstract view
.subckt sky130_fd_sc_hd__dfxbp_1 D Q Q_N CLK VGND VNB VPB VPWR
.ends

* Black-box entry subcircuit for sky130_fd_sc_hd__buf_2 abstract view
.subckt sky130_fd_sc_hd__buf_2 A X VGND VNB VPB VPWR
.ends

* Black-box entry subcircuit for sky130_fd_sc_hd__decap_3 abstract view
.subckt sky130_fd_sc_hd__decap_3 VGND VNB VPB VPWR
.ends

* Black-box entry subcircuit for sky130_fd_sc_hd__conb_1 abstract view
.subckt sky130_fd_sc_hd__conb_1 HI LO VGND VNB VPB VPWR
.ends

* Black-box entry subcircuit for sky130_fd_sc_hd__tapvpwrvgnd_1 abstract view
.subckt sky130_fd_sc_hd__tapvpwrvgnd_1 VGND VPWR
.ends

* Black-box entry subcircuit for sky130_fd_sc_hd__or2_1 abstract view
.subckt sky130_fd_sc_hd__or2_1 A B X VGND VNB VPB VPWR
.ends

* Black-box entry subcircuit for sky130_fd_sc_hd__sdfxbp_1 abstract view
.subckt sky130_fd_sc_hd__sdfxbp_1 D Q Q_N SCD SCE CLK VGND VNB VPB VPWR
.ends

* Black-box entry subcircuit for sky130_fd_sc_hd__clkbuf_16 abstract view
.subckt sky130_fd_sc_hd__clkbuf_16 A X VGND VNB VPB VPWR
.ends

* Black-box entry subcircuit for sky130_fd_sc_hd__clkbuf_1 abstract view
.subckt sky130_fd_sc_hd__clkbuf_1 A X VGND VNB VPB VPWR
.ends

.subckt grid_clb Test_en bottom_width_0_height_0__pin_16_ bottom_width_0_height_0__pin_17_
+ bottom_width_0_height_0__pin_18_ bottom_width_0_height_0__pin_19_ bottom_width_0_height_0__pin_20_
+ bottom_width_0_height_0__pin_21_ bottom_width_0_height_0__pin_22_ bottom_width_0_height_0__pin_23_
+ bottom_width_0_height_0__pin_24_ bottom_width_0_height_0__pin_25_ bottom_width_0_height_0__pin_26_
+ bottom_width_0_height_0__pin_27_ bottom_width_0_height_0__pin_28_ bottom_width_0_height_0__pin_29_
+ bottom_width_0_height_0__pin_30_ bottom_width_0_height_0__pin_31_ bottom_width_0_height_0__pin_42_lower
+ bottom_width_0_height_0__pin_42_upper bottom_width_0_height_0__pin_43_lower bottom_width_0_height_0__pin_43_upper
+ bottom_width_0_height_0__pin_44_lower bottom_width_0_height_0__pin_44_upper bottom_width_0_height_0__pin_45_lower
+ bottom_width_0_height_0__pin_45_upper bottom_width_0_height_0__pin_46_lower bottom_width_0_height_0__pin_46_upper
+ bottom_width_0_height_0__pin_47_lower bottom_width_0_height_0__pin_47_upper bottom_width_0_height_0__pin_48_lower
+ bottom_width_0_height_0__pin_48_upper bottom_width_0_height_0__pin_49_lower bottom_width_0_height_0__pin_49_upper
+ bottom_width_0_height_0__pin_50_ bottom_width_0_height_0__pin_51_ ccff_head ccff_tail
+ clk left_width_0_height_0__pin_52_ prog_clk right_width_0_height_0__pin_0_ right_width_0_height_0__pin_10_
+ right_width_0_height_0__pin_11_ right_width_0_height_0__pin_12_ right_width_0_height_0__pin_13_
+ right_width_0_height_0__pin_14_ right_width_0_height_0__pin_15_ right_width_0_height_0__pin_1_
+ right_width_0_height_0__pin_2_ right_width_0_height_0__pin_34_lower right_width_0_height_0__pin_34_upper
+ right_width_0_height_0__pin_35_lower right_width_0_height_0__pin_35_upper right_width_0_height_0__pin_36_lower
+ right_width_0_height_0__pin_36_upper right_width_0_height_0__pin_37_lower right_width_0_height_0__pin_37_upper
+ right_width_0_height_0__pin_38_lower right_width_0_height_0__pin_38_upper right_width_0_height_0__pin_39_lower
+ right_width_0_height_0__pin_39_upper right_width_0_height_0__pin_3_ right_width_0_height_0__pin_40_lower
+ right_width_0_height_0__pin_40_upper right_width_0_height_0__pin_41_lower right_width_0_height_0__pin_41_upper
+ right_width_0_height_0__pin_4_ right_width_0_height_0__pin_5_ right_width_0_height_0__pin_6_
+ right_width_0_height_0__pin_7_ right_width_0_height_0__pin_8_ right_width_0_height_0__pin_9_
+ top_width_0_height_0__pin_32_ top_width_0_height_0__pin_33_ VPWR VGND
XFILLER_39_277 VGND VGND VPWR VPWR sky130_fd_sc_hd__decap_12
XFILLER_22_166 VGND VGND VPWR VPWR sky130_fd_sc_hd__decap_12
Xltile_clb_mode_0.ltile_clb_fle_2.ltile_fabric_0.mux_ff_0_D_0.mux_l2_in_0_ _62_/HI
+ ltile_clb_mode_0.ltile_clb_fle_2.ltile_fabric_0.mux_ff_0_D_0.mux_l1_in_0_/X ltile_clb_mode_0.ltile_clb_fle_2.ltile_fabric_0.mux_ff_0_D_0.mux_l2_in_0_/S
+ ltile_clb_mode_0.ltile_clb_fle_2.ltile_fabric_0.mux_ff_0_D_0.mux_l2_in_0_/X VGND
+ VGND VPWR VPWR sky130_fd_sc_hd__mux2_1
XFILLER_18_406 VGND VGND VPWR VPWR sky130_fd_sc_hd__fill_1
Xltile_clb_mode_0.ltile_clb_fle_4.ltile_fabric_0.mux_fabric_out_0.mux_l2_in_0_ _36_/HI
+ ltile_clb_mode_0.ltile_clb_fle_4.ltile_fabric_0.mux_fabric_out_0.mux_l1_in_0_/X
+ ltile_clb_mode_0.ltile_clb_fle_4.ltile_fabric_0.mux_fabric_out_0.mux_l2_in_0_/S
+ bottom_width_0_height_0__pin_43_lower VGND VGND VPWR VPWR sky130_fd_sc_hd__mux2_1
XFILLER_60_239 VGND VGND VPWR VPWR sky130_fd_sc_hd__decap_12
XFILLER_45_236 VGND VGND VPWR VPWR sky130_fd_sc_hd__fill_2
XFILLER_5_332 VGND VGND VPWR VPWR sky130_fd_sc_hd__decap_4
Xltile_clb_mode_0.ltile_clb_fle_7.ltile_fabric_0.ltile_clb_frac_logic_0.ltile_clb_lut4_0.frac_lut4_0_.frac_lut4_mux_0_.mux_l1_in_1_
+ ltile_clb_mode_0.ltile_clb_fle_7.ltile_fabric_0.ltile_clb_frac_logic_0.ltile_clb_lut4_0.frac_lut4_0_.frac_lut4_mux_0_.mux_l1_in_1_/A0
+ ltile_clb_mode_0.ltile_clb_fle_7.ltile_fabric_0.ltile_clb_frac_logic_0.ltile_clb_lut4_0.frac_lut4_0_.frac_lut4_mux_0_.mux_l1_in_1_/A1
+ ltile_clb_mode_0.ltile_clb_fle_7.ltile_fabric_0.ltile_clb_frac_logic_0.ltile_clb_lut4_0.frac_lut4_0_.sky130_fd_sc_hd__buf_2_0_/X
+ ltile_clb_mode_0.ltile_clb_fle_7.ltile_fabric_0.ltile_clb_frac_logic_0.ltile_clb_lut4_0.frac_lut4_0_.frac_lut4_mux_0_.mux_l1_in_1_/X
+ VGND VGND VPWR VPWR sky130_fd_sc_hd__mux2_1
XFILLER_36_269 VGND VGND VPWR VPWR sky130_fd_sc_hd__fill_2
Xltile_clb_mode_0.ltile_clb_fle_6.ltile_fabric_0.ltile_clb_frac_logic_0.ltile_clb_lut4_0.frac_lut4_0_.frac_lut4_mux_0_.mux_l4_in_0_
+ ltile_clb_mode_0.ltile_clb_fle_6.ltile_fabric_0.ltile_clb_frac_logic_0.ltile_clb_lut4_0.frac_lut4_0_.frac_lut4_mux_0_.mux_l3_in_1_/X
+ ltile_clb_mode_0.ltile_clb_fle_6.ltile_fabric_0.ltile_clb_frac_logic_0.ltile_clb_lut4_0.frac_lut4_0_.frac_lut4_mux_0_.mux_l3_in_0_/X
+ ltile_clb_mode_0.ltile_clb_fle_6.ltile_fabric_0.ltile_clb_frac_logic_0.ltile_clb_lut4_0.frac_lut4_0_.sky130_fd_sc_hd__buf_2_3_/X
+ ltile_clb_mode_0.ltile_clb_fle_6.ltile_fabric_0.ltile_clb_frac_logic_0.ltile_clb_lut4_0.frac_lut4_0_.frac_lut4_mux_0_.mux_l4_in_0_/X
+ VGND VGND VPWR VPWR sky130_fd_sc_hd__mux2_1
XANTENNA_ltile_clb_mode_0.ltile_clb_fle_2.ltile_fabric_0.ltile_clb_md_fle_mp_fab_md_ff_1.sky130_fd_sc_hd__sdfxbp_1_0__SCE
+ Test_en VGND VGND VPWR VPWR sky130_fd_sc_hd__diode_2
XFILLER_59_306 VGND VGND VPWR VPWR sky130_fd_sc_hd__decap_8
XFILLER_63_39 VGND VGND VPWR VPWR sky130_fd_sc_hd__decap_12
XANTENNA_ltile_clb_mode_0.ltile_clb_fle_2.ltile_fabric_0.ltile_clb_frac_logic_0.ltile_clb_lut4_0.frac_lut4_0_.frac_lut4_mux_0_.mux_l4_in_0__A0
+ ltile_clb_mode_0.ltile_clb_fle_2.ltile_fabric_0.ltile_clb_frac_logic_0.ltile_clb_lut4_0.frac_lut4_0_.frac_lut4_mux_0_.mux_l3_in_1_/X
+ VGND VGND VPWR VPWR sky130_fd_sc_hd__diode_2
XFILLER_42_239 VGND VGND VPWR VPWR sky130_fd_sc_hd__decap_6
XFILLER_27_225 VGND VGND VPWR VPWR sky130_fd_sc_hd__fill_2
XANTENNA_ltile_clb_mode_0.ltile_clb_fle_3.ltile_fabric_0.ltile_clb_frac_logic_0.ltile_clb_lut4_0.frac_lut4_0_.frac_lut4_mux_0_.mux_l1_in_2__S
+ ltile_clb_mode_0.ltile_clb_fle_3.ltile_fabric_0.ltile_clb_frac_logic_0.ltile_clb_lut4_0.frac_lut4_0_.sky130_fd_sc_hd__buf_2_0_/X
+ VGND VGND VPWR VPWR sky130_fd_sc_hd__diode_2
XANTENNA_ltile_clb_mode_0.ltile_clb_fle_4.ltile_fabric_0.ltile_clb_frac_logic_0.ltile_clb_lut4_0.frac_lut4_0_.frac_lut4_mux_0_.mux_l1_in_1__A0
+ ltile_clb_mode_0.ltile_clb_fle_4.ltile_fabric_0.ltile_clb_frac_logic_0.ltile_clb_lut4_0.frac_lut4_0_.frac_lut4_mux_0_.mux_l1_in_1_/A0
+ VGND VGND VPWR VPWR sky130_fd_sc_hd__diode_2
XFILLER_6_118 VGND VGND VPWR VPWR sky130_fd_sc_hd__decap_8
XFILLER_10_125 VGND VGND VPWR VPWR sky130_fd_sc_hd__fill_1
XFILLER_12_32 VGND VGND VPWR VPWR sky130_fd_sc_hd__decap_12
XANTENNA_ltile_clb_mode_0.ltile_clb_fle_3.ltile_fabric_0.ltile_clb_md_fle_mp_fab_md_ff_1.sky130_fd_sc_hd__sdfxbp_1_0__SCD
+ ltile_clb_mode_0.ltile_clb_fle_3.ltile_fabric_0.mux_fabric_out_0.mux_l1_in_0_/A1
+ VGND VGND VPWR VPWR sky130_fd_sc_hd__diode_2
XANTENNA_ltile_clb_mode_0.ltile_clb_fle_5.ltile_fabric_0.ltile_clb_frac_logic_0.mem_frac_logic_out_0.sky130_fd_sc_hd__dfxbp_1_0__CLK
+ prog_clk VGND VGND VPWR VPWR sky130_fd_sc_hd__diode_2
XFILLER_58_383 VGND VGND VPWR VPWR sky130_fd_sc_hd__decap_12
XFILLER_37_62 VGND VGND VPWR VPWR sky130_fd_sc_hd__decap_12
XFILLER_37_51 VGND VGND VPWR VPWR sky130_fd_sc_hd__decap_8
XANTENNA_ltile_clb_mode_0.ltile_clb_fle_7.ltile_fabric_0.ltile_clb_frac_logic_0.ltile_clb_lut4_0.frac_lut4_0_.frac_lut4_mux_0_.mux_l1_in_3__A0
+ ltile_clb_mode_0.ltile_clb_fle_7.ltile_fabric_0.ltile_clb_frac_logic_0.ltile_clb_lut4_0.frac_lut4_0_.frac_lut4_mux_0_.mux_l1_in_3_/A0
+ VGND VGND VPWR VPWR sky130_fd_sc_hd__diode_2
Xltile_clb_mode_0.ltile_clb_fle_7.ltile_fabric_0.ltile_clb_frac_logic_0.ltile_clb_lut4_0.frac_lut4_sky130_fd_sc_hd__dfxbp_1_mem.sky130_fd_sc_hd__dfxbp_1_11_
+ ltile_clb_mode_0.ltile_clb_fle_7.ltile_fabric_0.ltile_clb_frac_logic_0.ltile_clb_lut4_0.frac_lut4_0_.frac_lut4_mux_0_.mux_l1_in_5_/A1
+ ltile_clb_mode_0.ltile_clb_fle_7.ltile_fabric_0.ltile_clb_frac_logic_0.ltile_clb_lut4_0.frac_lut4_0_.frac_lut4_mux_0_.mux_l1_in_5_/A0
+ ltile_clb_mode_0.ltile_clb_fle_7.ltile_fabric_0.ltile_clb_frac_logic_0.ltile_clb_lut4_0.frac_lut4_sky130_fd_sc_hd__dfxbp_1_mem.sky130_fd_sc_hd__dfxbp_1_11_/Q_N
+ prog_clk VGND VGND VPWR VPWR sky130_fd_sc_hd__dfxbp_1
XFILLER_41_250 VGND VGND VPWR VPWR sky130_fd_sc_hd__fill_2
XFILLER_33_228 VGND VGND VPWR VPWR sky130_fd_sc_hd__fill_2
XANTENNA_ltile_clb_mode_0.ltile_clb_fle_2.ltile_fabric_0.ltile_clb_frac_logic_0.ltile_clb_lut4_0.frac_lut4_sky130_fd_sc_hd__dfxbp_1_mem.sky130_fd_sc_hd__dfxbp_1_8__CLK
+ prog_clk VGND VGND VPWR VPWR sky130_fd_sc_hd__diode_2
XFILLER_5_162 VGND VGND VPWR VPWR sky130_fd_sc_hd__fill_2
XANTENNA_ltile_clb_mode_0.ltile_clb_fle_0.ltile_fabric_0.ltile_clb_frac_logic_0.ltile_clb_lut4_0.frac_lut4_sky130_fd_sc_hd__dfxbp_1_mem.sky130_fd_sc_hd__dfxbp_1_0__CLK
+ prog_clk VGND VGND VPWR VPWR sky130_fd_sc_hd__diode_2
XANTENNA_ltile_clb_mode_0.ltile_clb_fle_1.ltile_fabric_0.ltile_clb_frac_logic_0.ltile_clb_lut4_0.frac_lut4_sky130_fd_sc_hd__dfxbp_1_mem.sky130_fd_sc_hd__dfxbp_1_4__CLK
+ prog_clk VGND VGND VPWR VPWR sky130_fd_sc_hd__diode_2
Xltile_clb_mode_0.ltile_clb_fle_7.ltile_fabric_0.ltile_clb_frac_logic_0.ltile_clb_lut4_0.frac_lut4_sky130_fd_sc_hd__dfxbp_1_mem.sky130_fd_sc_hd__dfxbp_1_6_
+ ltile_clb_mode_0.ltile_clb_fle_7.ltile_fabric_0.ltile_clb_frac_logic_0.ltile_clb_lut4_0.frac_lut4_0_.frac_lut4_mux_0_.mux_l1_in_2_/A0
+ ltile_clb_mode_0.ltile_clb_fle_7.ltile_fabric_0.ltile_clb_frac_logic_0.ltile_clb_lut4_0.frac_lut4_0_.frac_lut4_mux_0_.mux_l1_in_3_/A1
+ ltile_clb_mode_0.ltile_clb_fle_7.ltile_fabric_0.ltile_clb_frac_logic_0.ltile_clb_lut4_0.frac_lut4_sky130_fd_sc_hd__dfxbp_1_mem.sky130_fd_sc_hd__dfxbp_1_6_/Q_N
+ prog_clk VGND VGND VPWR VPWR sky130_fd_sc_hd__dfxbp_1
XFILLER_64_397 VGND VGND VPWR VPWR sky130_fd_sc_hd__decap_6
XFILLER_64_342 VGND VGND VPWR VPWR sky130_fd_sc_hd__decap_12
XFILLER_24_206 VGND VGND VPWR VPWR sky130_fd_sc_hd__decap_6
X_66_ bottom_width_0_height_0__pin_44_lower bottom_width_0_height_0__pin_44_upper
+ VGND VGND VPWR VPWR sky130_fd_sc_hd__buf_2
XANTENNA_ltile_clb_mode_0.ltile_clb_fle_5.ltile_fabric_0.mem_ff_0_D_0.sky130_fd_sc_hd__dfxbp_1_0__D
+ ltile_clb_mode_0.ltile_clb_fle_5.ltile_fabric_0.mux_fabric_out_1.mux_l2_in_0_/S
+ VGND VGND VPWR VPWR sky130_fd_sc_hd__diode_2
XFILLER_59_147 VGND VGND VPWR VPWR sky130_fd_sc_hd__decap_12
XANTENNA_ltile_clb_mode_0.ltile_clb_fle_2.ltile_fabric_0.ltile_clb_frac_logic_0.ltile_clb_lut4_0.frac_lut4_0_.frac_lut4_mux_0_.mux_l1_in_3__A1
+ ltile_clb_mode_0.ltile_clb_fle_2.ltile_fabric_0.ltile_clb_frac_logic_0.ltile_clb_lut4_0.frac_lut4_0_.frac_lut4_mux_0_.mux_l1_in_3_/A1
+ VGND VGND VPWR VPWR sky130_fd_sc_hd__diode_2
XFILLER_55_331 VGND VGND VPWR VPWR sky130_fd_sc_hd__fill_2
XFILLER_23_272 VGND VGND VPWR VPWR sky130_fd_sc_hd__decap_4
XFILLER_15_217 VGND VGND VPWR VPWR sky130_fd_sc_hd__fill_2
XANTENNA_ltile_clb_mode_0.ltile_clb_fle_2.ltile_fabric_0.ltile_clb_frac_logic_0.ltile_clb_lut4_0.frac_lut4_0_.frac_lut4_mux_0_.mux_l3_in_1__S
+ ltile_clb_mode_0.ltile_clb_fle_2.ltile_fabric_0.ltile_clb_frac_logic_0.ltile_clb_lut4_0.frac_lut4_0_.sky130_fd_sc_hd__buf_2_2_/X
+ VGND VGND VPWR VPWR sky130_fd_sc_hd__diode_2
XANTENNA_ltile_clb_mode_0.ltile_clb_fle_3.ltile_fabric_0.mux_ff_0_D_0.mux_l1_in_0__A1
+ ltile_clb_mode_0.ltile_clb_fle_3.ltile_fabric_0.mux_ff_0_D_0.mux_l1_in_0_/A1 VGND
+ VGND VPWR VPWR sky130_fd_sc_hd__diode_2
XFILLER_23_53 VGND VGND VPWR VPWR sky130_fd_sc_hd__fill_2
XFILLER_23_31 VGND VGND VPWR VPWR sky130_fd_sc_hd__fill_1
XANTENNA_ltile_clb_mode_0.ltile_clb_fle_5.ltile_fabric_0.ltile_clb_frac_logic_0.ltile_clb_lut4_0.frac_lut4_0_.frac_lut4_mux_0_.mux_l1_in_5__A1
+ ltile_clb_mode_0.ltile_clb_fle_5.ltile_fabric_0.ltile_clb_frac_logic_0.ltile_clb_lut4_0.frac_lut4_0_.frac_lut4_mux_0_.mux_l1_in_5_/A1
+ VGND VGND VPWR VPWR sky130_fd_sc_hd__diode_2
Xltile_clb_mode_0.ltile_clb_fle_4.ltile_fabric_0.ltile_clb_frac_logic_0.ltile_clb_lut4_0.frac_lut4_0_.sky130_fd_sc_hd__buf_2_3_
+ ltile_clb_mode_0.ltile_clb_fle_4.ltile_fabric_0.ltile_clb_frac_logic_0.ltile_clb_lut4_0.frac_lut4_0_.sky130_fd_sc_hd__or2_1_0_/X
+ ltile_clb_mode_0.ltile_clb_fle_4.ltile_fabric_0.ltile_clb_frac_logic_0.ltile_clb_lut4_0.frac_lut4_0_.sky130_fd_sc_hd__buf_2_3_/X
+ VGND VGND VPWR VPWR sky130_fd_sc_hd__buf_2
XFILLER_2_154 VGND VGND VPWR VPWR sky130_fd_sc_hd__fill_2
Xltile_clb_mode_0.ltile_clb_fle_6.ltile_fabric_0.ltile_clb_frac_logic_0.ltile_clb_lut4_0.frac_lut4_0_.frac_lut4_mux_0_.mux_l3_in_1_
+ ltile_clb_mode_0.ltile_clb_fle_6.ltile_fabric_0.ltile_clb_frac_logic_0.ltile_clb_lut4_0.frac_lut4_0_.frac_lut4_mux_0_.mux_l3_in_1_/A0
+ ltile_clb_mode_0.ltile_clb_fle_6.ltile_fabric_0.ltile_clb_frac_logic_0.ltile_clb_lut4_0.frac_lut4_0_.frac_lut4_mux_0_.mux_l3_in_1_/A1
+ ltile_clb_mode_0.ltile_clb_fle_6.ltile_fabric_0.ltile_clb_frac_logic_0.ltile_clb_lut4_0.frac_lut4_0_.sky130_fd_sc_hd__buf_2_2_/X
+ ltile_clb_mode_0.ltile_clb_fle_6.ltile_fabric_0.ltile_clb_frac_logic_0.ltile_clb_lut4_0.frac_lut4_0_.frac_lut4_mux_0_.mux_l3_in_1_/X
+ VGND VGND VPWR VPWR sky130_fd_sc_hd__mux2_1
XFILLER_61_367 VGND VGND VPWR VPWR sky130_fd_sc_hd__decap_4
XFILLER_9_33 VGND VGND VPWR VPWR sky130_fd_sc_hd__fill_1
XFILLER_9_66 VGND VGND VPWR VPWR sky130_fd_sc_hd__fill_1
XFILLER_14_272 VGND VGND VPWR VPWR sky130_fd_sc_hd__decap_3
Xltile_clb_mode_0.ltile_clb_fle_0.ltile_fabric_0.ltile_clb_frac_logic_0.ltile_clb_lut4_0.frac_lut4_0_.sky130_fd_sc_hd__buf_2_0_
+ right_width_0_height_0__pin_0_ ltile_clb_mode_0.ltile_clb_fle_0.ltile_fabric_0.ltile_clb_frac_logic_0.ltile_clb_lut4_0.frac_lut4_0_.sky130_fd_sc_hd__buf_2_0_/X
+ VGND VGND VPWR VPWR sky130_fd_sc_hd__buf_2
XFILLER_50_3 VGND VGND VPWR VPWR sky130_fd_sc_hd__decap_12
XFILLER_56_117 VGND VGND VPWR VPWR sky130_fd_sc_hd__decap_12
XFILLER_37_342 VGND VGND VPWR VPWR sky130_fd_sc_hd__decap_4
XANTENNA_ltile_clb_mode_0.ltile_clb_fle_4.ltile_fabric_0.ltile_clb_frac_logic_0.ltile_clb_lut4_0.frac_lut4_0_.frac_lut4_mux_0_.mux_l2_in_0__A0
+ ltile_clb_mode_0.ltile_clb_fle_4.ltile_fabric_0.ltile_clb_frac_logic_0.ltile_clb_lut4_0.frac_lut4_0_.frac_lut4_mux_0_.mux_l1_in_1_/X
+ VGND VGND VPWR VPWR sky130_fd_sc_hd__diode_2
XFILLER_52_345 VGND VGND VPWR VPWR sky130_fd_sc_hd__fill_2
XFILLER_52_312 VGND VGND VPWR VPWR sky130_fd_sc_hd__decap_12
X_49_ _49_/HI _49_/LO VGND VGND VPWR VPWR sky130_fd_sc_hd__conb_1
XANTENNA_ltile_clb_mode_0.ltile_clb_fle_7.ltile_fabric_0.ltile_clb_frac_logic_0.ltile_clb_lut4_0.frac_lut4_0_.frac_lut4_mux_0_.mux_l2_in_2__A0
+ ltile_clb_mode_0.ltile_clb_fle_7.ltile_fabric_0.ltile_clb_frac_logic_0.ltile_clb_lut4_0.frac_lut4_0_.frac_lut4_mux_0_.mux_l1_in_5_/X
+ VGND VGND VPWR VPWR sky130_fd_sc_hd__diode_2
Xltile_clb_mode_0.ltile_clb_fle_4.ltile_fabric_0.mem_fabric_out_0.sky130_fd_sc_hd__dfxbp_1_1_
+ ltile_clb_mode_0.ltile_clb_fle_4.ltile_fabric_0.mux_fabric_out_0.mux_l1_in_0_/S
+ ltile_clb_mode_0.ltile_clb_fle_4.ltile_fabric_0.mux_fabric_out_0.mux_l2_in_0_/S
+ ltile_clb_mode_0.ltile_clb_fle_4.ltile_fabric_0.mem_fabric_out_0.sky130_fd_sc_hd__dfxbp_1_1_/Q_N
+ prog_clk VGND VGND VPWR VPWR sky130_fd_sc_hd__dfxbp_1
XFILLER_43_301 VGND VGND VPWR VPWR sky130_fd_sc_hd__fill_2
XFILLER_28_320 VGND VGND VPWR VPWR sky130_fd_sc_hd__fill_2
XFILLER_18_53 VGND VGND VPWR VPWR sky130_fd_sc_hd__decap_8
XPHY_554 VGND VPWR sky130_fd_sc_hd__tapvpwrvgnd_1
XPHY_543 VGND VPWR sky130_fd_sc_hd__tapvpwrvgnd_1
XPHY_532 VGND VPWR sky130_fd_sc_hd__tapvpwrvgnd_1
XPHY_521 VGND VPWR sky130_fd_sc_hd__tapvpwrvgnd_1
XPHY_510 VGND VPWR sky130_fd_sc_hd__tapvpwrvgnd_1
XFILLER_11_253 VGND VGND VPWR VPWR sky130_fd_sc_hd__fill_2
XFILLER_7_268 VGND VGND VPWR VPWR sky130_fd_sc_hd__fill_2
XFILLER_11_297 VGND VGND VPWR VPWR sky130_fd_sc_hd__fill_2
XFILLER_38_117 VGND VGND VPWR VPWR sky130_fd_sc_hd__decap_12
Xltile_clb_mode_0.ltile_clb_fle_5.ltile_fabric_0.ltile_clb_frac_logic_0.ltile_clb_lut4_0.frac_lut4_sky130_fd_sc_hd__dfxbp_1_mem.sky130_fd_sc_hd__dfxbp_1_1_
+ ltile_clb_mode_0.ltile_clb_fle_5.ltile_fabric_0.ltile_clb_frac_logic_0.ltile_clb_lut4_0.frac_lut4_0_.frac_lut4_mux_0_.mux_l1_in_0_/A1
+ ltile_clb_mode_0.ltile_clb_fle_5.ltile_fabric_0.ltile_clb_frac_logic_0.ltile_clb_lut4_0.frac_lut4_0_.frac_lut4_mux_0_.mux_l1_in_0_/A0
+ ltile_clb_mode_0.ltile_clb_fle_5.ltile_fabric_0.ltile_clb_frac_logic_0.ltile_clb_lut4_0.frac_lut4_sky130_fd_sc_hd__dfxbp_1_mem.sky130_fd_sc_hd__dfxbp_1_1_/Q_N
+ prog_clk VGND VGND VPWR VPWR sky130_fd_sc_hd__dfxbp_1
XFILLER_34_301 VGND VGND VPWR VPWR sky130_fd_sc_hd__decap_12
XANTENNA_ltile_clb_mode_0.ltile_clb_fle_2.ltile_fabric_0.ltile_clb_frac_logic_0.ltile_clb_lut4_0.frac_lut4_0_.frac_lut4_mux_0_.mux_l2_in_2__A1
+ ltile_clb_mode_0.ltile_clb_fle_2.ltile_fabric_0.ltile_clb_frac_logic_0.ltile_clb_lut4_0.frac_lut4_0_.frac_lut4_mux_0_.mux_l1_in_4_/X
+ VGND VGND VPWR VPWR sky130_fd_sc_hd__diode_2
XANTENNA_ltile_clb_mode_0.ltile_clb_fle_1.ltile_fabric_0.mem_fabric_out_1.sky130_fd_sc_hd__dfxbp_1_1__D
+ ltile_clb_mode_0.ltile_clb_fle_1.ltile_fabric_0.mux_fabric_out_1.mux_l1_in_0_/S
+ VGND VGND VPWR VPWR sky130_fd_sc_hd__diode_2
XANTENNA_ltile_clb_mode_0.ltile_clb_fle_5.ltile_fabric_0.ltile_clb_frac_logic_0.ltile_clb_lut4_0.frac_lut4_sky130_fd_sc_hd__dfxbp_1_mem.sky130_fd_sc_hd__dfxbp_1_7__CLK
+ prog_clk VGND VGND VPWR VPWR sky130_fd_sc_hd__diode_2
XANTENNA_ltile_clb_mode_0.ltile_clb_fle_4.ltile_fabric_0.ltile_clb_frac_logic_0.ltile_clb_lut4_0.frac_lut4_sky130_fd_sc_hd__dfxbp_1_mem.sky130_fd_sc_hd__dfxbp_1_3__CLK
+ prog_clk VGND VGND VPWR VPWR sky130_fd_sc_hd__diode_2
XFILLER_40_337 VGND VGND VPWR VPWR sky130_fd_sc_hd__decap_12
XFILLER_25_367 VGND VGND VPWR VPWR sky130_fd_sc_hd__decap_12
Xltile_clb_mode_0.ltile_clb_fle_6.ltile_fabric_0.ltile_clb_frac_logic_0.ltile_clb_lut4_0.frac_lut4_0_.frac_lut4_mux_0_.mux_l2_in_2_
+ ltile_clb_mode_0.ltile_clb_fle_6.ltile_fabric_0.ltile_clb_frac_logic_0.ltile_clb_lut4_0.frac_lut4_0_.frac_lut4_mux_0_.mux_l1_in_5_/X
+ ltile_clb_mode_0.ltile_clb_fle_6.ltile_fabric_0.ltile_clb_frac_logic_0.ltile_clb_lut4_0.frac_lut4_0_.frac_lut4_mux_0_.mux_l1_in_4_/X
+ ltile_clb_mode_0.ltile_clb_fle_6.ltile_fabric_0.ltile_clb_frac_logic_0.ltile_clb_lut4_0.frac_lut4_0_.sky130_fd_sc_hd__buf_2_1_/X
+ ltile_clb_mode_0.ltile_clb_fle_6.ltile_fabric_0.ltile_clb_frac_logic_0.ltile_clb_lut4_0.frac_lut4_0_.frac_lut4_mux_0_.mux_l2_in_2_/X
+ VGND VGND VPWR VPWR sky130_fd_sc_hd__mux2_1
XFILLER_20_32 VGND VGND VPWR VPWR sky130_fd_sc_hd__fill_2
XANTENNA_ltile_clb_mode_0.ltile_clb_fle_0.ltile_fabric_0.ltile_clb_frac_logic_0.ltile_clb_lut4_0.frac_lut4_sky130_fd_sc_hd__dfxbp_1_mem.sky130_fd_sc_hd__dfxbp_1_0__D
+ ccff_head VGND VGND VPWR VPWR sky130_fd_sc_hd__diode_2
XANTENNA_ltile_clb_mode_0.ltile_clb_fle_5.ltile_fabric_0.mem_ff_0_D_0.sky130_fd_sc_hd__dfxbp_1_1__CLK
+ prog_clk VGND VGND VPWR VPWR sky130_fd_sc_hd__diode_2
XFILLER_45_62 VGND VGND VPWR VPWR sky130_fd_sc_hd__decap_12
XFILLER_45_51 VGND VGND VPWR VPWR sky130_fd_sc_hd__decap_8
XFILLER_16_356 VGND VGND VPWR VPWR sky130_fd_sc_hd__fill_2
XPHY_395 VGND VPWR sky130_fd_sc_hd__tapvpwrvgnd_1
XPHY_384 VGND VPWR sky130_fd_sc_hd__tapvpwrvgnd_1
XPHY_373 VGND VPWR sky130_fd_sc_hd__tapvpwrvgnd_1
XPHY_362 VGND VPWR sky130_fd_sc_hd__tapvpwrvgnd_1
XPHY_351 VGND VPWR sky130_fd_sc_hd__tapvpwrvgnd_1
XPHY_340 VGND VPWR sky130_fd_sc_hd__tapvpwrvgnd_1
XANTENNA_ltile_clb_mode_0.ltile_clb_fle_4.ltile_fabric_0.mux_ff_0_D_0.mux_l1_in_0__A0
+ ltile_clb_mode_0.ltile_clb_fle_4.ltile_fabric_0.mux_ff_0_D_0.mux_l1_in_0_/A0 VGND
+ VGND VPWR VPWR sky130_fd_sc_hd__diode_2
XANTENNA_ltile_clb_mode_0.ltile_clb_fle_7.ltile_fabric_0.ltile_clb_frac_logic_0.ltile_clb_lut4_0.frac_lut4_0_.frac_lut4_mux_0_.mux_l3_in_1__A0
+ ltile_clb_mode_0.ltile_clb_fle_7.ltile_fabric_0.ltile_clb_frac_logic_0.ltile_clb_lut4_0.frac_lut4_0_.frac_lut4_mux_0_.mux_l3_in_1_/A0
+ VGND VGND VPWR VPWR sky130_fd_sc_hd__diode_2
XFILLER_6_89 VGND VGND VPWR VPWR sky130_fd_sc_hd__fill_1
XFILLER_39_404 VGND VGND VPWR VPWR sky130_fd_sc_hd__decap_3
XFILLER_19_172 VGND VGND VPWR VPWR sky130_fd_sc_hd__decap_8
XFILLER_13_3 VGND VGND VPWR VPWR sky130_fd_sc_hd__decap_12
XANTENNA_ltile_clb_mode_0.ltile_clb_fle_7.ltile_fabric_0.ltile_clb_frac_logic_0.mem_frac_logic_out_0.sky130_fd_sc_hd__dfxbp_1_1__D
+ ltile_clb_mode_0.ltile_clb_fle_7.ltile_fabric_0.ltile_clb_frac_logic_0.mux_frac_logic_out_0.mux_l1_in_0_/S
+ VGND VGND VPWR VPWR sky130_fd_sc_hd__diode_2
XFILLER_57_245 VGND VGND VPWR VPWR sky130_fd_sc_hd__decap_12
Xltile_clb_mode_0.ltile_clb_fle_1.ltile_fabric_0.ltile_clb_frac_logic_0.ltile_clb_lut4_0.frac_lut4_0_.frac_lut4_mux_0_.sky130_fd_sc_hd__buf_2_3_
+ ltile_clb_mode_0.ltile_clb_fle_1.ltile_fabric_0.ltile_clb_frac_logic_0.ltile_clb_lut4_0.frac_lut4_0_.frac_lut4_mux_0_.mux_l2_in_0_/X
+ ltile_clb_mode_0.ltile_clb_fle_1.ltile_fabric_0.ltile_clb_frac_logic_0.ltile_clb_lut4_0.frac_lut4_0_.frac_lut4_mux_0_.mux_l3_in_0_/A1
+ VGND VGND VPWR VPWR sky130_fd_sc_hd__buf_2
Xltile_clb_mode_0.ltile_clb_fle_5.ltile_fabric_0.ltile_clb_frac_logic_0.ltile_clb_lut4_0.frac_lut4_0_.frac_lut4_mux_0_.mux_l1_in_6_
+ ltile_clb_mode_0.ltile_clb_fle_5.ltile_fabric_0.ltile_clb_frac_logic_0.ltile_clb_lut4_0.frac_lut4_0_.frac_lut4_mux_0_.mux_l1_in_6_/A0
+ ltile_clb_mode_0.ltile_clb_fle_5.ltile_fabric_0.ltile_clb_frac_logic_0.ltile_clb_lut4_0.frac_lut4_0_.frac_lut4_mux_0_.mux_l1_in_6_/A1
+ ltile_clb_mode_0.ltile_clb_fle_5.ltile_fabric_0.ltile_clb_frac_logic_0.ltile_clb_lut4_0.frac_lut4_0_.sky130_fd_sc_hd__buf_2_0_/X
+ ltile_clb_mode_0.ltile_clb_fle_5.ltile_fabric_0.ltile_clb_frac_logic_0.ltile_clb_lut4_0.frac_lut4_0_.frac_lut4_mux_0_.mux_l1_in_6_/X
+ VGND VGND VPWR VPWR sky130_fd_sc_hd__mux2_1
XFILLER_25_175 VGND VGND VPWR VPWR sky130_fd_sc_hd__fill_2
XFILLER_17_109 VGND VGND VPWR VPWR sky130_fd_sc_hd__fill_1
XANTENNA_ltile_clb_mode_0.ltile_clb_fle_3.ltile_fabric_0.ltile_clb_frac_logic_0.ltile_clb_lut4_0.frac_lut4_0_.frac_lut4_mux_0_.mux_l1_in_5__S
+ ltile_clb_mode_0.ltile_clb_fle_3.ltile_fabric_0.ltile_clb_frac_logic_0.ltile_clb_lut4_0.frac_lut4_0_.sky130_fd_sc_hd__buf_2_0_/X
+ VGND VGND VPWR VPWR sky130_fd_sc_hd__diode_2
XFILLER_40_178 VGND VGND VPWR VPWR sky130_fd_sc_hd__decap_12
XFILLER_21_392 VGND VGND VPWR VPWR sky130_fd_sc_hd__decap_12
XANTENNA_ltile_clb_mode_0.ltile_clb_fle_4.ltile_fabric_0.ltile_clb_frac_logic_0.mux_frac_logic_out_0.mux_l2_in_0__A0
+ _35_/HI VGND VGND VPWR VPWR sky130_fd_sc_hd__diode_2
XFILLER_13_348 VGND VGND VPWR VPWR sky130_fd_sc_hd__fill_2
XANTENNA_ltile_clb_mode_0.ltile_clb_fle_2.ltile_fabric_0.ltile_clb_frac_logic_0.ltile_clb_lut4_0.frac_lut4_0_.frac_lut4_mux_0_.mux_l3_in_1__A1
+ ltile_clb_mode_0.ltile_clb_fle_2.ltile_fabric_0.ltile_clb_frac_logic_0.ltile_clb_lut4_0.frac_lut4_0_.frac_lut4_mux_0_.mux_l3_in_1_/A1
+ VGND VGND VPWR VPWR sky130_fd_sc_hd__diode_2
XFILLER_31_86 VGND VGND VPWR VPWR sky130_fd_sc_hd__decap_12
XFILLER_31_123 VGND VGND VPWR VPWR sky130_fd_sc_hd__decap_12
XPHY_170 VGND VPWR sky130_fd_sc_hd__tapvpwrvgnd_1
Xltile_clb_mode_0.ltile_clb_fle_0.ltile_fabric_0.ltile_clb_frac_logic_0.ltile_clb_lut4_0.frac_lut4_sky130_fd_sc_hd__dfxbp_1_mem.sky130_fd_sc_hd__dfxbp_1_7_
+ ltile_clb_mode_0.ltile_clb_fle_0.ltile_fabric_0.ltile_clb_frac_logic_0.ltile_clb_lut4_0.frac_lut4_0_.frac_lut4_mux_0_.mux_l1_in_3_/A1
+ ltile_clb_mode_0.ltile_clb_fle_0.ltile_fabric_0.ltile_clb_frac_logic_0.ltile_clb_lut4_0.frac_lut4_0_.frac_lut4_mux_0_.mux_l1_in_3_/A0
+ ltile_clb_mode_0.ltile_clb_fle_0.ltile_fabric_0.ltile_clb_frac_logic_0.ltile_clb_lut4_0.frac_lut4_sky130_fd_sc_hd__dfxbp_1_mem.sky130_fd_sc_hd__dfxbp_1_7_/Q_N
+ prog_clk VGND VGND VPWR VPWR sky130_fd_sc_hd__dfxbp_1
XPHY_181 VGND VPWR sky130_fd_sc_hd__tapvpwrvgnd_1
XPHY_192 VGND VPWR sky130_fd_sc_hd__tapvpwrvgnd_1
XFILLER_8_385 VGND VGND VPWR VPWR sky130_fd_sc_hd__decap_12
Xltile_clb_mode_0.ltile_clb_fle_6.ltile_fabric_0.ltile_clb_frac_logic_0.ltile_clb_lut4_0.frac_lut4_0_.frac_lut4_mux_0_.mux_l1_in_3_
+ ltile_clb_mode_0.ltile_clb_fle_6.ltile_fabric_0.ltile_clb_frac_logic_0.ltile_clb_lut4_0.frac_lut4_0_.frac_lut4_mux_0_.mux_l1_in_3_/A0
+ ltile_clb_mode_0.ltile_clb_fle_6.ltile_fabric_0.ltile_clb_frac_logic_0.ltile_clb_lut4_0.frac_lut4_0_.frac_lut4_mux_0_.mux_l1_in_3_/A1
+ ltile_clb_mode_0.ltile_clb_fle_6.ltile_fabric_0.ltile_clb_frac_logic_0.ltile_clb_lut4_0.frac_lut4_0_.sky130_fd_sc_hd__buf_2_0_/X
+ ltile_clb_mode_0.ltile_clb_fle_6.ltile_fabric_0.ltile_clb_frac_logic_0.ltile_clb_lut4_0.frac_lut4_0_.frac_lut4_mux_0_.mux_l1_in_3_/X
+ VGND VGND VPWR VPWR sky130_fd_sc_hd__mux2_1
XFILLER_54_215 VGND VGND VPWR VPWR sky130_fd_sc_hd__decap_12
XFILLER_39_289 VGND VGND VPWR VPWR sky130_fd_sc_hd__decap_3
XFILLER_39_245 VGND VGND VPWR VPWR sky130_fd_sc_hd__decap_8
XFILLER_22_178 VGND VGND VPWR VPWR sky130_fd_sc_hd__decap_12
XANTENNA_ltile_clb_mode_0.ltile_clb_fle_7.ltile_fabric_0.ltile_clb_frac_logic_0.ltile_clb_lut4_0.frac_lut4_sky130_fd_sc_hd__dfxbp_1_mem.sky130_fd_sc_hd__dfxbp_1_2__CLK
+ prog_clk VGND VGND VPWR VPWR sky130_fd_sc_hd__diode_2
XANTENNA_ltile_clb_mode_0.ltile_clb_fle_2.ltile_fabric_0.ltile_clb_frac_logic_0.ltile_clb_lut4_0.frac_lut4_sky130_fd_sc_hd__dfxbp_1_mem.sky130_fd_sc_hd__dfxbp_1_10__D
+ ltile_clb_mode_0.ltile_clb_fle_2.ltile_fabric_0.ltile_clb_frac_logic_0.ltile_clb_lut4_0.frac_lut4_0_.frac_lut4_mux_0_.mux_l1_in_4_/A0
+ VGND VGND VPWR VPWR sky130_fd_sc_hd__diode_2
XANTENNA_ltile_clb_mode_0.ltile_clb_fle_2.ltile_fabric_0.ltile_clb_frac_logic_0.ltile_clb_lut4_0.frac_lut4_0_.sky130_fd_sc_hd__buf_2_0__A
+ right_width_0_height_0__pin_8_ VGND VGND VPWR VPWR sky130_fd_sc_hd__diode_2
XFILLER_26_64 VGND VGND VPWR VPWR sky130_fd_sc_hd__fill_1
XANTENNA_ltile_clb_mode_0.ltile_clb_fle_7.ltile_fabric_0.ltile_clb_frac_logic_0.ltile_clb_lut4_0.frac_lut4_0_.frac_lut4_mux_0_.mux_l4_in_0__A0
+ ltile_clb_mode_0.ltile_clb_fle_7.ltile_fabric_0.ltile_clb_frac_logic_0.ltile_clb_lut4_0.frac_lut4_0_.frac_lut4_mux_0_.mux_l3_in_1_/X
+ VGND VGND VPWR VPWR sky130_fd_sc_hd__diode_2
XFILLER_13_123 VGND VGND VPWR VPWR sky130_fd_sc_hd__decap_3
Xltile_clb_mode_0.ltile_clb_fle_7.ltile_fabric_0.mux_ff_0_D_0.mux_l1_in_0_ ltile_clb_mode_0.ltile_clb_fle_7.ltile_fabric_0.mux_ff_0_D_0.mux_l1_in_0_/A0
+ ltile_clb_mode_0.ltile_clb_fle_7.ltile_fabric_0.mux_ff_0_D_0.mux_l1_in_0_/A1 ltile_clb_mode_0.ltile_clb_fle_7.ltile_fabric_0.mux_ff_0_D_0.mux_l1_in_0_/S
+ ltile_clb_mode_0.ltile_clb_fle_7.ltile_fabric_0.mux_ff_0_D_0.mux_l1_in_0_/X VGND
+ VGND VPWR VPWR sky130_fd_sc_hd__mux2_1
XFILLER_5_355 VGND VGND VPWR VPWR sky130_fd_sc_hd__fill_2
XFILLER_9_127 VGND VGND VPWR VPWR sky130_fd_sc_hd__fill_2
XANTENNA_ltile_clb_mode_0.ltile_clb_fle_0.ltile_fabric_0.mux_fabric_out_1.mux_l2_in_0__S
+ ltile_clb_mode_0.ltile_clb_fle_0.ltile_fabric_0.mux_fabric_out_1.mux_l2_in_0_/S
+ VGND VGND VPWR VPWR sky130_fd_sc_hd__diode_2
XFILLER_3_57 VGND VGND VPWR VPWR sky130_fd_sc_hd__fill_2
Xltile_clb_mode_0.ltile_clb_fle_7.ltile_fabric_0.ltile_clb_frac_logic_0.ltile_clb_lut4_0.frac_lut4_0_.frac_lut4_mux_0_.mux_l1_in_0_
+ ltile_clb_mode_0.ltile_clb_fle_7.ltile_fabric_0.ltile_clb_frac_logic_0.ltile_clb_lut4_0.frac_lut4_0_.frac_lut4_mux_0_.mux_l1_in_0_/A0
+ ltile_clb_mode_0.ltile_clb_fle_7.ltile_fabric_0.ltile_clb_frac_logic_0.ltile_clb_lut4_0.frac_lut4_0_.frac_lut4_mux_0_.mux_l1_in_0_/A1
+ ltile_clb_mode_0.ltile_clb_fle_7.ltile_fabric_0.ltile_clb_frac_logic_0.ltile_clb_lut4_0.frac_lut4_0_.sky130_fd_sc_hd__buf_2_0_/X
+ ltile_clb_mode_0.ltile_clb_fle_7.ltile_fabric_0.ltile_clb_frac_logic_0.ltile_clb_lut4_0.frac_lut4_0_.frac_lut4_mux_0_.mux_l1_in_0_/X
+ VGND VGND VPWR VPWR sky130_fd_sc_hd__mux2_1
XFILLER_36_215 VGND VGND VPWR VPWR sky130_fd_sc_hd__decap_4
XANTENNA_ltile_clb_mode_0.ltile_clb_fle_2.ltile_fabric_0.ltile_clb_frac_logic_0.ltile_clb_lut4_0.frac_lut4_0_.frac_lut4_mux_0_.mux_l4_in_0__A1
+ ltile_clb_mode_0.ltile_clb_fle_2.ltile_fabric_0.ltile_clb_frac_logic_0.ltile_clb_lut4_0.frac_lut4_0_.frac_lut4_mux_0_.mux_l3_in_0_/X
+ VGND VGND VPWR VPWR sky130_fd_sc_hd__diode_2