* NGSPICE file created from grid_clb.ext - technology: sky130A

* Black-box entry subcircuit for sky130_fd_sc_hd__fill_1 abstract view
.subckt sky130_fd_sc_hd__fill_1 VGND VNB VPB VPWR
.ends

* Black-box entry subcircuit for sky130_fd_sc_hd__fill_2 abstract view
.subckt sky130_fd_sc_hd__fill_2 VGND VNB VPB VPWR
.ends

* Black-box entry subcircuit for sky130_fd_sc_hd__decap_4 abstract view
.subckt sky130_fd_sc_hd__decap_4 VGND VNB VPB VPWR
.ends

* Black-box entry subcircuit for sky130_fd_sc_hd__buf_2 abstract view
.subckt sky130_fd_sc_hd__buf_2 A VGND VNB VPB VPWR X
.ends

* Black-box entry subcircuit for sky130_fd_sc_hd__mux2_1 abstract view
.subckt sky130_fd_sc_hd__mux2_1 A0 A1 S VGND VNB VPB VPWR X
.ends

* Black-box entry subcircuit for sky130_fd_sc_hd__dfxtp_1 abstract view
.subckt sky130_fd_sc_hd__dfxtp_1 CLK D VGND VNB VPB VPWR Q
.ends

* Black-box entry subcircuit for sky130_fd_sc_hd__clkbuf_1 abstract view
.subckt sky130_fd_sc_hd__clkbuf_1 A VGND VNB VPB VPWR X
.ends

* Black-box entry subcircuit for sky130_fd_sc_hd__decap_3 abstract view
.subckt sky130_fd_sc_hd__decap_3 VGND VNB VPB VPWR
.ends

* Black-box entry subcircuit for sky130_fd_sc_hd__conb_1 abstract view
.subckt sky130_fd_sc_hd__conb_1 VGND VNB VPB VPWR HI LO
.ends

* Black-box entry subcircuit for sky130_fd_sc_hd__diode_2 abstract view
.subckt sky130_fd_sc_hd__diode_2 DIODE VGND VNB VPB VPWR
.ends

* Black-box entry subcircuit for sky130_fd_sc_hd__tapvpwrvgnd_1 abstract view
.subckt sky130_fd_sc_hd__tapvpwrvgnd_1 VGND VPWR
.ends

* Black-box entry subcircuit for sky130_fd_sc_hd__decap_6 abstract view
.subckt sky130_fd_sc_hd__decap_6 VGND VNB VPB VPWR
.ends

* Black-box entry subcircuit for sky130_fd_sc_hd__decap_12 abstract view
.subckt sky130_fd_sc_hd__decap_12 VGND VNB VPB VPWR
.ends

* Black-box entry subcircuit for sky130_fd_sc_hd__sdfxtp_1 abstract view
.subckt sky130_fd_sc_hd__sdfxtp_1 CLK D SCD SCE VGND VNB VPB VPWR Q
.ends

* Black-box entry subcircuit for sky130_fd_sc_hd__buf_8 abstract view
.subckt sky130_fd_sc_hd__buf_8 A VGND VNB VPB VPWR X
.ends

* Black-box entry subcircuit for sky130_fd_sc_hd__buf_4 abstract view
.subckt sky130_fd_sc_hd__buf_4 A VGND VNB VPB VPWR X
.ends

* Black-box entry subcircuit for sky130_fd_sc_hd__decap_8 abstract view
.subckt sky130_fd_sc_hd__decap_8 VGND VNB VPB VPWR
.ends

* Black-box entry subcircuit for sky130_fd_sc_hd__clkbuf_16 abstract view
.subckt sky130_fd_sc_hd__clkbuf_16 A VGND VNB VPB VPWR X
.ends

* Black-box entry subcircuit for sky130_fd_sc_hd__or2_1 abstract view
.subckt sky130_fd_sc_hd__or2_1 A B VGND VNB VPB VPWR X
.ends

.subckt grid_clb SC_IN_BOT SC_IN_TOP SC_OUT_BOT SC_OUT_TOP Test_en_E_in Test_en_E_out
+ Test_en_W_in Test_en_W_out bottom_width_0_height_0__pin_50_ bottom_width_0_height_0__pin_51_
+ ccff_head ccff_tail clk_0_N_in clk_0_S_in prog_clk_0_E_out prog_clk_0_N_in prog_clk_0_N_out
+ prog_clk_0_S_in prog_clk_0_S_out prog_clk_0_W_out right_width_0_height_0__pin_16_
+ right_width_0_height_0__pin_17_ right_width_0_height_0__pin_18_ right_width_0_height_0__pin_19_
+ right_width_0_height_0__pin_20_ right_width_0_height_0__pin_21_ right_width_0_height_0__pin_22_
+ right_width_0_height_0__pin_23_ right_width_0_height_0__pin_24_ right_width_0_height_0__pin_25_
+ right_width_0_height_0__pin_26_ right_width_0_height_0__pin_27_ right_width_0_height_0__pin_28_
+ right_width_0_height_0__pin_29_ right_width_0_height_0__pin_30_ right_width_0_height_0__pin_31_
+ right_width_0_height_0__pin_42_lower right_width_0_height_0__pin_42_upper right_width_0_height_0__pin_43_lower
+ right_width_0_height_0__pin_43_upper right_width_0_height_0__pin_44_lower right_width_0_height_0__pin_44_upper
+ right_width_0_height_0__pin_45_lower right_width_0_height_0__pin_45_upper right_width_0_height_0__pin_46_lower
+ right_width_0_height_0__pin_46_upper right_width_0_height_0__pin_47_lower right_width_0_height_0__pin_47_upper
+ right_width_0_height_0__pin_48_lower right_width_0_height_0__pin_48_upper right_width_0_height_0__pin_49_lower
+ right_width_0_height_0__pin_49_upper top_width_0_height_0__pin_0_ top_width_0_height_0__pin_10_
+ top_width_0_height_0__pin_11_ top_width_0_height_0__pin_12_ top_width_0_height_0__pin_13_
+ top_width_0_height_0__pin_14_ top_width_0_height_0__pin_15_ top_width_0_height_0__pin_1_
+ top_width_0_height_0__pin_2_ top_width_0_height_0__pin_32_ top_width_0_height_0__pin_33_
+ top_width_0_height_0__pin_34_lower top_width_0_height_0__pin_34_upper top_width_0_height_0__pin_35_lower
+ top_width_0_height_0__pin_35_upper top_width_0_height_0__pin_36_lower top_width_0_height_0__pin_36_upper
+ top_width_0_height_0__pin_37_lower top_width_0_height_0__pin_37_upper top_width_0_height_0__pin_38_lower
+ top_width_0_height_0__pin_38_upper top_width_0_height_0__pin_39_lower top_width_0_height_0__pin_39_upper
+ top_width_0_height_0__pin_3_ top_width_0_height_0__pin_40_lower top_width_0_height_0__pin_40_upper
+ top_width_0_height_0__pin_41_lower top_width_0_height_0__pin_41_upper top_width_0_height_0__pin_4_
+ top_width_0_height_0__pin_5_ top_width_0_height_0__pin_6_ top_width_0_height_0__pin_7_
+ top_width_0_height_0__pin_8_ top_width_0_height_0__pin_9_ VPWR VGND
XFILLER_22_122 VGND VGND VPWR VPWR sky130_fd_sc_hd__fill_1
XFILLER_22_111 VGND VGND VPWR VPWR sky130_fd_sc_hd__fill_2
XFILLER_26_52 VGND VGND VPWR VPWR sky130_fd_sc_hd__decap_4
XFILLER_26_41 VGND VGND VPWR VPWR sky130_fd_sc_hd__fill_2
X_83_ top_width_0_height_0__pin_38_lower VGND VGND VPWR VPWR top_width_0_height_0__pin_38_upper
+ sky130_fd_sc_hd__buf_2
Xltile_clb_mode__0.ltile_fle_3.ltile_phy_fabric_0.ltile_frac_logic_0.ltile_frac_lut4_0.frac_lut4_0_.frac_lut4_mux_0_.mux_l1_in_0_
+ ltile_clb_mode__0.ltile_fle_3.ltile_phy_fabric_0.ltile_frac_logic_0.ltile_frac_lut4_0.frac_lut4_0_.frac_lut4_mux_0_.mux_l1_in_0_/A0
+ ltile_clb_mode__0.ltile_fle_3.ltile_phy_fabric_0.ltile_frac_logic_0.ltile_frac_lut4_0.frac_lut4_0_.frac_lut4_mux_0_.mux_l1_in_0_/A1
+ ltile_clb_mode__0.ltile_fle_3.ltile_phy_fabric_0.ltile_frac_logic_0.ltile_frac_lut4_0.frac_lut4_0_.sky130_fd_sc_hd__buf_2_0_/X
+ VGND VGND VPWR VPWR ltile_clb_mode__0.ltile_fle_3.ltile_phy_fabric_0.ltile_frac_logic_0.ltile_frac_lut4_0.frac_lut4_0_.frac_lut4_mux_0_.mux_l1_in_0_/X
+ sky130_fd_sc_hd__mux2_1
Xltile_clb_mode__0.ltile_fle_0.ltile_phy_fabric_0.ltile_frac_logic_0.ltile_frac_lut4_0.frac_lut4_sky130_fd_sc_hd__dfxtp_1_mem.sky130_fd_sc_hd__dfxtp_1_13_
+ ltile_clb_mode__0.ltile_fle_2.ltile_phy_fabric_0.ltile_frac_logic_0.mem_frac_logic_out_0.sky130_fd_sc_hd__dfxtp_1_1_/CLK
+ ltile_clb_mode__0.ltile_fle_0.ltile_phy_fabric_0.ltile_frac_logic_0.ltile_frac_lut4_0.frac_lut4_0_.frac_lut4_mux_0_.mux_l1_in_6_/A1
+ VGND VGND VPWR VPWR ltile_clb_mode__0.ltile_fle_0.ltile_phy_fabric_0.ltile_frac_logic_0.ltile_frac_lut4_0.frac_lut4_0_.frac_lut4_mux_0_.mux_l1_in_6_/A0
+ sky130_fd_sc_hd__dfxtp_1
XFILLER_18_236 VGND VGND VPWR VPWR sky130_fd_sc_hd__fill_2
X_66_ SC_OUT_BOT VGND VGND VPWR VPWR SC_OUT_TOP sky130_fd_sc_hd__buf_2
XFILLER_23_31 VGND VGND VPWR VPWR sky130_fd_sc_hd__fill_2
Xclkbuf_2_2_0_ltile_clb_mode__0.ltile_fle_0.ltile_phy_fabric_0.ltile_frac_logic_0.ltile_frac_lut4_0.frac_lut4_sky130_fd_sc_hd__dfxtp_1_mem.prog_clk
+ clkbuf_2_3_0_ltile_clb_mode__0.ltile_fle_0.ltile_phy_fabric_0.ltile_frac_logic_0.ltile_frac_lut4_0.frac_lut4_sky130_fd_sc_hd__dfxtp_1_mem.prog_clk/A
+ VGND VGND VPWR VPWR clkbuf_2_2_0_ltile_clb_mode__0.ltile_fle_0.ltile_phy_fabric_0.ltile_frac_logic_0.ltile_frac_lut4_0.frac_lut4_sky130_fd_sc_hd__dfxtp_1_mem.prog_clk/X
+ sky130_fd_sc_hd__clkbuf_1
XFILLER_2_154 VGND VGND VPWR VPWR sky130_fd_sc_hd__decap_3
X_49_ VGND VGND VPWR VPWR _49_/HI _49_/LO sky130_fd_sc_hd__conb_1
Xltile_clb_mode__0.ltile_fle_4.ltile_phy_fabric_0.mux_ff_0_D_0.mux_l2_in_0_ _39_/HI
+ ltile_clb_mode__0.ltile_fle_4.ltile_phy_fabric_0.mux_ff_0_D_0.mux_l1_in_0_/X ltile_clb_mode__0.ltile_fle_4.ltile_phy_fabric_0.mux_ff_0_D_0.mux_l2_in_0_/S
+ VGND VGND VPWR VPWR ltile_clb_mode__0.ltile_fle_4.ltile_phy_fabric_0.mux_ff_0_D_0.mux_l2_in_0_/X
+ sky130_fd_sc_hd__mux2_1
XFILLER_34_41 VGND VGND VPWR VPWR sky130_fd_sc_hd__fill_2
Xltile_clb_mode__0.ltile_fle_7.ltile_phy_fabric_0.ltile_frac_logic_0.ltile_frac_lut4_0.frac_lut4_sky130_fd_sc_hd__dfxtp_1_mem.sky130_fd_sc_hd__dfxtp_1_1_
+ ltile_clb_mode__0.ltile_fle_7.ltile_phy_fabric_0.mem_ff_0_D_0.sky130_fd_sc_hd__dfxtp_1_0_/CLK
+ ltile_clb_mode__0.ltile_fle_7.ltile_phy_fabric_0.ltile_frac_logic_0.ltile_frac_lut4_0.frac_lut4_0_.frac_lut4_mux_0_.mux_l1_in_0_/A1
+ VGND VGND VPWR VPWR ltile_clb_mode__0.ltile_fle_7.ltile_phy_fabric_0.ltile_frac_logic_0.ltile_frac_lut4_0.frac_lut4_0_.frac_lut4_mux_0_.mux_l1_in_0_/A0
+ sky130_fd_sc_hd__dfxtp_1
XFILLER_20_21 VGND VGND VPWR VPWR sky130_fd_sc_hd__decap_4
XFILLER_20_10 VGND VGND VPWR VPWR sky130_fd_sc_hd__fill_2
Xltile_clb_mode__0.ltile_fle_0.ltile_phy_fabric_0.ltile_frac_logic_0.ltile_frac_lut4_0.frac_lut4_sky130_fd_sc_hd__dfxtp_1_mem.sky130_fd_sc_hd__dfxtp_1_7_
+ clkbuf_4_0_0_ltile_clb_mode__0.ltile_fle_0.ltile_phy_fabric_0.ltile_frac_logic_0.ltile_frac_lut4_0.frac_lut4_sky130_fd_sc_hd__dfxtp_1_mem.prog_clk/X
+ ltile_clb_mode__0.ltile_fle_0.ltile_phy_fabric_0.ltile_frac_logic_0.ltile_frac_lut4_0.frac_lut4_0_.frac_lut4_mux_0_.mux_l1_in_3_/A1
+ VGND VGND VPWR VPWR ltile_clb_mode__0.ltile_fle_0.ltile_phy_fabric_0.ltile_frac_logic_0.ltile_frac_lut4_0.frac_lut4_0_.frac_lut4_mux_0_.mux_l1_in_3_/A0
+ sky130_fd_sc_hd__dfxtp_1
XANTENNA_5 _32_/HI VGND VGND VPWR VPWR sky130_fd_sc_hd__diode_2
XFILLER_26_109 VGND VGND VPWR VPWR sky130_fd_sc_hd__fill_2
XPHY_192 VGND VPWR sky130_fd_sc_hd__tapvpwrvgnd_1
XFILLER_31_97 VGND VGND VPWR VPWR sky130_fd_sc_hd__decap_3
XPHY_181 VGND VPWR sky130_fd_sc_hd__tapvpwrvgnd_1
XPHY_170 VGND VPWR sky130_fd_sc_hd__tapvpwrvgnd_1
Xltile_clb_mode__0.ltile_fle_6.ltile_phy_fabric_0.ltile_frac_logic_0.ltile_frac_lut4_0.frac_lut4_0_.frac_lut4_mux_0_.mux_l1_in_6_
+ ltile_clb_mode__0.ltile_fle_6.ltile_phy_fabric_0.ltile_frac_logic_0.ltile_frac_lut4_0.frac_lut4_0_.frac_lut4_mux_0_.mux_l1_in_6_/A0
+ ltile_clb_mode__0.ltile_fle_6.ltile_phy_fabric_0.ltile_frac_logic_0.ltile_frac_lut4_0.frac_lut4_0_.frac_lut4_mux_0_.mux_l1_in_6_/A1
+ ltile_clb_mode__0.ltile_fle_6.ltile_phy_fabric_0.ltile_frac_logic_0.ltile_frac_lut4_0.frac_lut4_0_.sky130_fd_sc_hd__buf_2_0_/X
+ VGND VGND VPWR VPWR ltile_clb_mode__0.ltile_fle_6.ltile_phy_fabric_0.ltile_frac_logic_0.ltile_frac_lut4_0.frac_lut4_0_.frac_lut4_mux_0_.mux_l1_in_6_/X
+ sky130_fd_sc_hd__mux2_1
XFILLER_13_123 VGND VGND VPWR VPWR sky130_fd_sc_hd__decap_3
X_82_ top_width_0_height_0__pin_37_lower VGND VGND VPWR VPWR top_width_0_height_0__pin_37_upper
+ sky130_fd_sc_hd__buf_2
Xltile_clb_mode__0.ltile_fle_0.ltile_phy_fabric_0.ltile_frac_logic_0.ltile_frac_lut4_0.frac_lut4_sky130_fd_sc_hd__dfxtp_1_mem.sky130_fd_sc_hd__dfxtp_1_12_
+ ltile_clb_mode__0.ltile_fle_2.ltile_phy_fabric_0.ltile_frac_logic_0.mem_frac_logic_out_0.sky130_fd_sc_hd__dfxtp_1_1_/CLK
+ ltile_clb_mode__0.ltile_fle_0.ltile_phy_fabric_0.ltile_frac_logic_0.ltile_frac_lut4_0.frac_lut4_0_.frac_lut4_mux_0_.mux_l1_in_5_/A0
+ VGND VGND VPWR VPWR ltile_clb_mode__0.ltile_fle_0.ltile_phy_fabric_0.ltile_frac_logic_0.ltile_frac_lut4_0.frac_lut4_0_.frac_lut4_mux_0_.mux_l1_in_6_/A1
+ sky130_fd_sc_hd__dfxtp_1
Xclkbuf_3_3_0_ltile_clb_mode__0.ltile_fle_0.ltile_phy_fabric_0.ltile_frac_logic_0.ltile_frac_lut4_0.frac_lut4_sky130_fd_sc_hd__dfxtp_1_mem.prog_clk
+ clkbuf_3_3_0_ltile_clb_mode__0.ltile_fle_0.ltile_phy_fabric_0.ltile_frac_logic_0.ltile_frac_lut4_0.frac_lut4_sky130_fd_sc_hd__dfxtp_1_mem.prog_clk/A
+ VGND VGND VPWR VPWR clkbuf_4_7_0_ltile_clb_mode__0.ltile_fle_0.ltile_phy_fabric_0.ltile_frac_logic_0.ltile_frac_lut4_0.frac_lut4_sky130_fd_sc_hd__dfxtp_1_mem.prog_clk/A
+ sky130_fd_sc_hd__clkbuf_1
XFILLER_10_159 VGND VGND VPWR VPWR sky130_fd_sc_hd__fill_2
XFILLER_6_119 VGND VGND VPWR VPWR sky130_fd_sc_hd__fill_2
X_65_ SC_IN_BOT VGND VGND VPWR VPWR SC_IN_TOP sky130_fd_sc_hd__buf_2
Xltile_clb_mode__0.ltile_fle_3.ltile_phy_fabric_0.mem_fabric_out_0.sky130_fd_sc_hd__dfxtp_1_1_
+ ltile_clb_mode__0.ltile_fle_3.ltile_phy_fabric_0.mem_fabric_out_0.sky130_fd_sc_hd__dfxtp_1_0_/CLK
+ ltile_clb_mode__0.ltile_fle_3.ltile_phy_fabric_0.mux_fabric_out_0.mux_l1_in_0_/S
+ VGND VGND VPWR VPWR ltile_clb_mode__0.ltile_fle_3.ltile_phy_fabric_0.mux_fabric_out_0.mux_l2_in_0_/S
+ sky130_fd_sc_hd__dfxtp_1
XFILLER_23_54 VGND VGND VPWR VPWR sky130_fd_sc_hd__fill_2
XFILLER_15_229 VGND VGND VPWR VPWR sky130_fd_sc_hd__fill_2
Xltile_clb_mode__0.ltile_fle_6.ltile_phy_fabric_0.ltile_frac_logic_0.mux_frac_logic_out_0.mux_l2_in_0_
+ _44_/HI ltile_clb_mode__0.ltile_fle_6.ltile_phy_fabric_0.ltile_frac_logic_0.mux_frac_logic_out_0.mux_l1_in_0_/X
+ ltile_clb_mode__0.ltile_fle_6.ltile_phy_fabric_0.mem_fabric_out_0.sky130_fd_sc_hd__dfxtp_1_0_/D
+ VGND VGND VPWR VPWR ltile_clb_mode__0.ltile_fle_6.ltile_phy_fabric_0.mux_ff_0_D_0.mux_l1_in_0_/A1
+ sky130_fd_sc_hd__mux2_1
XFILLER_9_78 VGND VGND VPWR VPWR sky130_fd_sc_hd__fill_2
X_48_ VGND VGND VPWR VPWR _48_/HI _48_/LO sky130_fd_sc_hd__conb_1
XFILLER_34_86 VGND VGND VPWR VPWR sky130_fd_sc_hd__decap_6
XFILLER_18_21 VGND VGND VPWR VPWR sky130_fd_sc_hd__decap_4
XFILLER_7_236 VGND VGND VPWR VPWR sky130_fd_sc_hd__fill_2
Xltile_clb_mode__0.ltile_fle_3.ltile_phy_fabric_0.mux_fabric_out_1.mux_l2_in_0_ _34_/HI
+ ltile_clb_mode__0.ltile_fle_3.ltile_phy_fabric_0.mux_fabric_out_1.mux_l1_in_0_/X
+ ltile_clb_mode__0.ltile_fle_3.ltile_phy_fabric_0.mux_fabric_out_1.mux_l2_in_0_/S
+ VGND VGND VPWR VPWR top_width_0_height_0__pin_40_lower sky130_fd_sc_hd__mux2_1
Xltile_clb_mode__0.ltile_fle_7.ltile_phy_fabric_0.ltile_frac_logic_0.ltile_frac_lut4_0.frac_lut4_sky130_fd_sc_hd__dfxtp_1_mem.sky130_fd_sc_hd__dfxtp_1_0_
+ ltile_clb_mode__0.ltile_fle_7.ltile_phy_fabric_0.mem_ff_0_D_0.sky130_fd_sc_hd__dfxtp_1_0_/CLK
+ ltile_clb_mode__0.ltile_fle_6.ltile_phy_fabric_0.mux_ff_0_D_0.mux_l2_in_0_/S VGND
+ VGND VPWR VPWR ltile_clb_mode__0.ltile_fle_7.ltile_phy_fabric_0.ltile_frac_logic_0.ltile_frac_lut4_0.frac_lut4_0_.frac_lut4_mux_0_.mux_l1_in_0_/A1
+ sky130_fd_sc_hd__dfxtp_1
XFILLER_20_88 VGND VGND VPWR VPWR sky130_fd_sc_hd__decap_4
XFILLER_20_77 VGND VGND VPWR VPWR sky130_fd_sc_hd__fill_2
XFILLER_28_151 VGND VGND VPWR VPWR sky130_fd_sc_hd__fill_2
XFILLER_19_151 VGND VGND VPWR VPWR sky130_fd_sc_hd__fill_2
Xltile_clb_mode__0.ltile_fle_0.ltile_phy_fabric_0.ltile_frac_logic_0.ltile_frac_lut4_0.frac_lut4_sky130_fd_sc_hd__dfxtp_1_mem.sky130_fd_sc_hd__dfxtp_1_6_
+ ltile_clb_mode__0.ltile_fle_2.ltile_phy_fabric_0.ltile_frac_logic_0.mem_frac_logic_out_0.sky130_fd_sc_hd__dfxtp_1_1_/CLK
+ ltile_clb_mode__0.ltile_fle_0.ltile_phy_fabric_0.ltile_frac_logic_0.ltile_frac_lut4_0.frac_lut4_0_.frac_lut4_mux_0_.mux_l1_in_2_/A0
+ VGND VGND VPWR VPWR ltile_clb_mode__0.ltile_fle_0.ltile_phy_fabric_0.ltile_frac_logic_0.ltile_frac_lut4_0.frac_lut4_0_.frac_lut4_mux_0_.mux_l1_in_3_/A1
+ sky130_fd_sc_hd__dfxtp_1
XANTENNA_6 _32_/HI VGND VGND VPWR VPWR sky130_fd_sc_hd__diode_2
XFILLER_6_79 VGND VGND VPWR VPWR sky130_fd_sc_hd__fill_2
Xltile_clb_mode__0.ltile_fle_4.ltile_phy_fabric_0.mux_ff_0_D_0.mux_l1_in_0_ ltile_clb_mode__0.ltile_fle_4.ltile_phy_fabric_0.mux_ff_0_D_0.mux_l1_in_0_/A0
+ ltile_clb_mode__0.ltile_fle_4.ltile_phy_fabric_0.mux_ff_0_D_0.mux_l1_in_0_/A1 ltile_clb_mode__0.ltile_fle_4.ltile_phy_fabric_0.mux_ff_0_D_0.mux_l1_in_0_/S
+ VGND VGND VPWR VPWR ltile_clb_mode__0.ltile_fle_4.ltile_phy_fabric_0.mux_ff_0_D_0.mux_l1_in_0_/X
+ sky130_fd_sc_hd__mux2_1
XFILLER_34_176 VGND VGND VPWR VPWR sky130_fd_sc_hd__fill_2
XFILLER_25_154 VGND VGND VPWR VPWR sky130_fd_sc_hd__decap_3
XFILLER_25_121 VGND VGND VPWR VPWR sky130_fd_sc_hd__fill_1
XFILLER_15_66 VGND VGND VPWR VPWR sky130_fd_sc_hd__decap_3
XFILLER_15_22 VGND VGND VPWR VPWR sky130_fd_sc_hd__fill_2
XPHY_193 VGND VPWR sky130_fd_sc_hd__tapvpwrvgnd_1
XPHY_182 VGND VPWR sky130_fd_sc_hd__tapvpwrvgnd_1
XPHY_171 VGND VPWR sky130_fd_sc_hd__tapvpwrvgnd_1
XPHY_160 VGND VPWR sky130_fd_sc_hd__tapvpwrvgnd_1
XFILLER_16_154 VGND VGND VPWR VPWR sky130_fd_sc_hd__decap_4
XFILLER_16_143 VGND VGND VPWR VPWR sky130_fd_sc_hd__decap_4
Xclkbuf_4_4_0_ltile_clb_mode__0.ltile_fle_0.ltile_phy_fabric_0.ltile_frac_logic_0.ltile_frac_lut4_0.frac_lut4_sky130_fd_sc_hd__dfxtp_1_mem.prog_clk
+ clkbuf_4_5_0_ltile_clb_mode__0.ltile_fle_0.ltile_phy_fabric_0.ltile_frac_logic_0.ltile_frac_lut4_0.frac_lut4_sky130_fd_sc_hd__dfxtp_1_mem.prog_clk/A
+ VGND VGND VPWR VPWR ltile_clb_mode__0.ltile_fle_1.ltile_phy_fabric_0.mem_ff_0_D_0.sky130_fd_sc_hd__dfxtp_1_1_/CLK
+ sky130_fd_sc_hd__clkbuf_1
Xltile_clb_mode__0.ltile_fle_2.ltile_phy_fabric_0.ltile_frac_logic_0.mux_frac_logic_out_0.mux_l2_in_0_
+ _60_/HI ltile_clb_mode__0.ltile_fle_2.ltile_phy_fabric_0.ltile_frac_logic_0.mux_frac_logic_out_0.mux_l1_in_0_/X
+ ltile_clb_mode__0.ltile_fle_2.ltile_phy_fabric_0.mem_fabric_out_0.sky130_fd_sc_hd__dfxtp_1_0_/D
+ VGND VGND VPWR VPWR ltile_clb_mode__0.ltile_fle_2.ltile_phy_fabric_0.mux_ff_0_D_0.mux_l1_in_0_/A1
+ sky130_fd_sc_hd__mux2_1
Xltile_clb_mode__0.ltile_fle_6.ltile_phy_fabric_0.ltile_frac_logic_0.ltile_frac_lut4_0.frac_lut4_0_.frac_lut4_mux_0_.mux_l1_in_5_
+ ltile_clb_mode__0.ltile_fle_6.ltile_phy_fabric_0.ltile_frac_logic_0.ltile_frac_lut4_0.frac_lut4_0_.frac_lut4_mux_0_.mux_l1_in_5_/A0
+ ltile_clb_mode__0.ltile_fle_6.ltile_phy_fabric_0.ltile_frac_logic_0.ltile_frac_lut4_0.frac_lut4_0_.frac_lut4_mux_0_.mux_l1_in_5_/A1
+ ltile_clb_mode__0.ltile_fle_6.ltile_phy_fabric_0.ltile_frac_logic_0.ltile_frac_lut4_0.frac_lut4_0_.sky130_fd_sc_hd__buf_2_0_/X
+ VGND VGND VPWR VPWR ltile_clb_mode__0.ltile_fle_6.ltile_phy_fabric_0.ltile_frac_logic_0.ltile_frac_lut4_0.frac_lut4_0_.frac_lut4_mux_0_.mux_l1_in_5_/X
+ sky130_fd_sc_hd__mux2_1
X_81_ top_width_0_height_0__pin_36_lower VGND VGND VPWR VPWR top_width_0_height_0__pin_36_upper
+ sky130_fd_sc_hd__buf_2
Xltile_clb_mode__0.ltile_fle_0.ltile_phy_fabric_0.ltile_frac_logic_0.ltile_frac_lut4_0.frac_lut4_sky130_fd_sc_hd__dfxtp_1_mem.sky130_fd_sc_hd__dfxtp_1_11_
+ clkbuf_4_0_0_ltile_clb_mode__0.ltile_fle_0.ltile_phy_fabric_0.ltile_frac_logic_0.ltile_frac_lut4_0.frac_lut4_sky130_fd_sc_hd__dfxtp_1_mem.prog_clk/X
+ ltile_clb_mode__0.ltile_fle_0.ltile_phy_fabric_0.ltile_frac_logic_0.ltile_frac_lut4_0.frac_lut4_0_.frac_lut4_mux_0_.mux_l1_in_5_/A1
+ VGND VGND VPWR VPWR ltile_clb_mode__0.ltile_fle_0.ltile_phy_fabric_0.ltile_frac_logic_0.ltile_frac_lut4_0.frac_lut4_0_.frac_lut4_mux_0_.mux_l1_in_5_/A0
+ sky130_fd_sc_hd__dfxtp_1
XFILLER_12_56 VGND VGND VPWR VPWR sky130_fd_sc_hd__fill_1
XFILLER_10_127 VGND VGND VPWR VPWR sky130_fd_sc_hd__fill_2
X_64_ VGND VGND VPWR VPWR _64_/HI bottom_width_0_height_0__pin_51_ sky130_fd_sc_hd__conb_1
Xltile_clb_mode__0.ltile_fle_3.ltile_phy_fabric_0.mem_fabric_out_0.sky130_fd_sc_hd__dfxtp_1_0_
+ ltile_clb_mode__0.ltile_fle_3.ltile_phy_fabric_0.mem_fabric_out_0.sky130_fd_sc_hd__dfxtp_1_0_/CLK
+ ltile_clb_mode__0.ltile_fle_3.ltile_phy_fabric_0.mem_fabric_out_0.sky130_fd_sc_hd__dfxtp_1_0_/D
+ VGND VGND VPWR VPWR ltile_clb_mode__0.ltile_fle_3.ltile_phy_fabric_0.mux_fabric_out_0.mux_l1_in_0_/S
+ sky130_fd_sc_hd__dfxtp_1
XFILLER_23_230 VGND VGND VPWR VPWR sky130_fd_sc_hd__fill_2
XFILLER_0_15 VGND VGND VPWR VPWR sky130_fd_sc_hd__decap_12
XFILLER_3_3 VGND VGND VPWR VPWR sky130_fd_sc_hd__decap_12
XFILLER_20_211 VGND VGND VPWR VPWR sky130_fd_sc_hd__decap_3
X_47_ VGND VGND VPWR VPWR _47_/HI _47_/LO sky130_fd_sc_hd__conb_1
XFILLER_18_99 VGND VGND VPWR VPWR sky130_fd_sc_hd__decap_4
XFILLER_18_55 VGND VGND VPWR VPWR sky130_fd_sc_hd__fill_2
Xltile_clb_mode__0.ltile_fle_6.ltile_phy_fabric_0.ltile_frac_logic_0.ltile_frac_lut4_0.frac_lut4_0_.frac_lut4_mux_0_.mux_l2_in_3_
+ ltile_clb_mode__0.ltile_fle_6.ltile_phy_fabric_0.ltile_frac_logic_0.ltile_frac_lut4_0.frac_lut4_0_.frac_lut4_mux_0_.mux_l1_in_7_/X
+ ltile_clb_mode__0.ltile_fle_6.ltile_phy_fabric_0.ltile_frac_logic_0.ltile_frac_lut4_0.frac_lut4_0_.frac_lut4_mux_0_.mux_l1_in_6_/X
+ ltile_clb_mode__0.ltile_fle_6.ltile_phy_fabric_0.ltile_frac_logic_0.ltile_frac_lut4_0.frac_lut4_0_.sky130_fd_sc_hd__buf_2_1_/X
+ VGND VGND VPWR VPWR ltile_clb_mode__0.ltile_fle_6.ltile_phy_fabric_0.ltile_frac_logic_0.ltile_frac_lut4_0.frac_lut4_0_.frac_lut4_mux_0_.mux_l2_in_3_/X
+ sky130_fd_sc_hd__mux2_1
XFILLER_29_76 VGND VGND VPWR VPWR sky130_fd_sc_hd__fill_2
XFILLER_29_65 VGND VGND VPWR VPWR sky130_fd_sc_hd__fill_2
XFILLER_29_54 VGND VGND VPWR VPWR sky130_fd_sc_hd__fill_2
Xltile_clb_mode__0.ltile_fle_6.ltile_phy_fabric_0.ltile_frac_logic_0.mux_frac_logic_out_0.mux_l1_in_0_
+ ltile_clb_mode__0.ltile_fle_6.ltile_phy_fabric_0.ltile_frac_logic_0.mux_frac_logic_out_0.mux_l1_in_0_/A0
+ ltile_clb_mode__0.ltile_fle_6.ltile_phy_fabric_0.ltile_frac_logic_0.mux_frac_logic_out_0.mux_l1_in_0_/A1
+ ltile_clb_mode__0.ltile_fle_6.ltile_phy_fabric_0.ltile_frac_logic_0.mux_frac_logic_out_0.mux_l1_in_0_/S
+ VGND VGND VPWR VPWR ltile_clb_mode__0.ltile_fle_6.ltile_phy_fabric_0.ltile_frac_logic_0.mux_frac_logic_out_0.mux_l1_in_0_/X
+ sky130_fd_sc_hd__mux2_1
Xltile_clb_mode__0.ltile_fle_0.ltile_phy_fabric_0.ltile_frac_logic_0.ltile_frac_lut4_0.frac_lut4_sky130_fd_sc_hd__dfxtp_1_mem.sky130_fd_sc_hd__dfxtp_1_5_
+ ltile_clb_mode__0.ltile_fle_2.ltile_phy_fabric_0.ltile_frac_logic_0.mem_frac_logic_out_0.sky130_fd_sc_hd__dfxtp_1_1_/CLK
+ ltile_clb_mode__0.ltile_fle_0.ltile_phy_fabric_0.ltile_frac_logic_0.ltile_frac_lut4_0.frac_lut4_0_.frac_lut4_mux_0_.mux_l1_in_2_/A1
+ VGND VGND VPWR VPWR ltile_clb_mode__0.ltile_fle_0.ltile_phy_fabric_0.ltile_frac_logic_0.ltile_frac_lut4_0.frac_lut4_0_.frac_lut4_mux_0_.mux_l1_in_2_/A0
+ sky130_fd_sc_hd__dfxtp_1
XANTENNA_7 _32_/HI VGND VGND VPWR VPWR sky130_fd_sc_hd__diode_2
XFILLER_6_69 VGND VGND VPWR VPWR sky130_fd_sc_hd__fill_1
XFILLER_19_141 VGND VGND VPWR VPWR sky130_fd_sc_hd__fill_1
Xltile_clb_mode__0.ltile_fle_3.ltile_phy_fabric_0.mux_fabric_out_1.mux_l1_in_0_ ltile_clb_mode__0.ltile_fle_3.ltile_phy_fabric_0.mux_fabric_out_1.mux_l1_in_0_/A0
+ ltile_clb_mode__0.ltile_fle_4.ltile_phy_fabric_0.mux_ff_0_D_0.mux_l1_in_0_/A0 ltile_clb_mode__0.ltile_fle_3.ltile_phy_fabric_0.mux_fabric_out_1.mux_l1_in_0_/S
+ VGND VGND VPWR VPWR ltile_clb_mode__0.ltile_fle_3.ltile_phy_fabric_0.mux_fabric_out_1.mux_l1_in_0_/X
+ sky130_fd_sc_hd__mux2_1
Xltile_clb_mode__0.ltile_fle_2.ltile_phy_fabric_0.ltile_frac_logic_0.ltile_frac_lut4_0.frac_lut4_0_.frac_lut4_mux_0_.mux_l1_in_7_
+ ltile_clb_mode__0.ltile_fle_2.ltile_phy_fabric_0.ltile_frac_logic_0.ltile_frac_lut4_0.frac_lut4_0_.frac_lut4_mux_0_.mux_l1_in_7_/A0
+ ltile_clb_mode__0.ltile_fle_2.ltile_phy_fabric_0.ltile_frac_logic_0.ltile_frac_lut4_0.frac_lut4_0_.frac_lut4_mux_0_.mux_l1_in_7_/A1
+ ltile_clb_mode__0.ltile_fle_2.ltile_phy_fabric_0.ltile_frac_logic_0.ltile_frac_lut4_0.frac_lut4_0_.sky130_fd_sc_hd__buf_2_0_/X
+ VGND VGND VPWR VPWR ltile_clb_mode__0.ltile_fle_2.ltile_phy_fabric_0.ltile_frac_logic_0.ltile_frac_lut4_0.frac_lut4_0_.frac_lut4_mux_0_.mux_l1_in_7_/X
+ sky130_fd_sc_hd__mux2_1
XFILLER_16_100 VGND VGND VPWR VPWR sky130_fd_sc_hd__fill_2
XPHY_194 VGND VPWR sky130_fd_sc_hd__tapvpwrvgnd_1
XFILLER_31_136 VGND VGND VPWR VPWR sky130_fd_sc_hd__fill_1
XPHY_183 VGND VPWR sky130_fd_sc_hd__tapvpwrvgnd_1
XPHY_172 VGND VPWR sky130_fd_sc_hd__tapvpwrvgnd_1
XPHY_161 VGND VPWR sky130_fd_sc_hd__tapvpwrvgnd_1
XPHY_150 VGND VPWR sky130_fd_sc_hd__tapvpwrvgnd_1
Xltile_clb_mode__0.ltile_fle_6.ltile_phy_fabric_0.ltile_frac_logic_0.ltile_frac_lut4_0.frac_lut4_0_.frac_lut4_mux_0_.mux_l1_in_4_
+ ltile_clb_mode__0.ltile_fle_6.ltile_phy_fabric_0.ltile_frac_logic_0.ltile_frac_lut4_0.frac_lut4_0_.frac_lut4_mux_0_.mux_l1_in_4_/A0
+ ltile_clb_mode__0.ltile_fle_6.ltile_phy_fabric_0.ltile_frac_logic_0.ltile_frac_lut4_0.frac_lut4_0_.frac_lut4_mux_0_.mux_l1_in_4_/A1
+ ltile_clb_mode__0.ltile_fle_6.ltile_phy_fabric_0.ltile_frac_logic_0.ltile_frac_lut4_0.frac_lut4_0_.sky130_fd_sc_hd__buf_2_0_/X
+ VGND VGND VPWR VPWR ltile_clb_mode__0.ltile_fle_6.ltile_phy_fabric_0.ltile_frac_logic_0.ltile_frac_lut4_0.frac_lut4_0_.frac_lut4_mux_0_.mux_l1_in_4_/X
+ sky130_fd_sc_hd__mux2_1
Xltile_clb_mode__0.ltile_fle_1.ltile_phy_fabric_0.ltile_frac_logic_0.ltile_frac_lut4_0.frac_lut4_sky130_fd_sc_hd__dfxtp_1_mem.sky130_fd_sc_hd__dfxtp_1_9_
+ ltile_clb_mode__0.ltile_fle_0.ltile_phy_fabric_0.mem_ff_0_D_0.sky130_fd_sc_hd__dfxtp_1_1_/CLK
+ ltile_clb_mode__0.ltile_fle_1.ltile_phy_fabric_0.ltile_frac_logic_0.ltile_frac_lut4_0.frac_lut4_0_.frac_lut4_mux_0_.mux_l1_in_4_/A1
+ VGND VGND VPWR VPWR ltile_clb_mode__0.ltile_fle_1.ltile_phy_fabric_0.ltile_frac_logic_0.ltile_frac_lut4_0.frac_lut4_0_.frac_lut4_mux_0_.mux_l1_in_4_/A0
+ sky130_fd_sc_hd__dfxtp_1
Xltile_clb_mode__0.ltile_fle_1.ltile_phy_fabric_0.ltile_clb_fle_ff_0.sky130_fd_sc_hd__sdfxtp_1_0_
+ clkbuf_1_0_0_ltile_clb_mode__0.clb_clk/X ltile_clb_mode__0.ltile_fle_1.ltile_phy_fabric_0.mux_ff_0_D_0.mux_l2_in_0_/X
+ ltile_clb_mode__0.ltile_fle_1.ltile_phy_fabric_0.mux_ff_0_D_0.mux_l1_in_0_/A0 Test_en_FTB00/X
+ VGND VGND VPWR VPWR ltile_clb_mode__0.ltile_fle_1.ltile_phy_fabric_0.mux_fabric_out_0.mux_l1_in_0_/A1
+ sky130_fd_sc_hd__sdfxtp_1
X_80_ top_width_0_height_0__pin_35_lower VGND VGND VPWR VPWR top_width_0_height_0__pin_35_upper
+ sky130_fd_sc_hd__buf_2
Xltile_clb_mode__0.ltile_fle_6.ltile_phy_fabric_0.ltile_frac_logic_0.ltile_frac_lut4_0.frac_lut4_0_.frac_lut4_mux_0_.mux_l4_in_0_
+ ltile_clb_mode__0.ltile_fle_6.ltile_phy_fabric_0.ltile_frac_logic_0.ltile_frac_lut4_0.frac_lut4_0_.frac_lut4_mux_0_.mux_l3_in_1_/X
+ ltile_clb_mode__0.ltile_fle_6.ltile_phy_fabric_0.ltile_frac_logic_0.ltile_frac_lut4_0.frac_lut4_0_.frac_lut4_mux_0_.mux_l3_in_0_/X
+ ltile_clb_mode__0.ltile_fle_6.ltile_phy_fabric_0.ltile_frac_logic_0.ltile_frac_lut4_0.frac_lut4_0_.sky130_fd_sc_hd__buf_2_3_/X
+ VGND VGND VPWR VPWR ltile_clb_mode__0.ltile_fle_6.ltile_phy_fabric_0.ltile_frac_logic_0.ltile_frac_lut4_0.frac_lut4_0_.frac_lut4_mux_0_.mux_l4_in_0_/X
+ sky130_fd_sc_hd__mux2_1
XFILLER_3_15 VGND VGND VPWR VPWR sky130_fd_sc_hd__decap_12
XFILLER_3_59 VGND VGND VPWR VPWR sky130_fd_sc_hd__fill_2
XFILLER_8_151 VGND VGND VPWR VPWR sky130_fd_sc_hd__fill_2
XFILLER_27_206 VGND VGND VPWR VPWR sky130_fd_sc_hd__fill_2
Xltile_clb_mode__0.ltile_fle_0.ltile_phy_fabric_0.ltile_frac_logic_0.ltile_frac_lut4_0.frac_lut4_sky130_fd_sc_hd__dfxtp_1_mem.sky130_fd_sc_hd__dfxtp_1_10_
+ clkbuf_4_0_0_ltile_clb_mode__0.ltile_fle_0.ltile_phy_fabric_0.ltile_frac_logic_0.ltile_frac_lut4_0.frac_lut4_sky130_fd_sc_hd__dfxtp_1_mem.prog_clk/X
+ ltile_clb_mode__0.ltile_fle_0.ltile_phy_fabric_0.ltile_frac_logic_0.ltile_frac_lut4_0.frac_lut4_0_.frac_lut4_mux_0_.mux_l1_in_4_/A0
+ VGND VGND VPWR VPWR ltile_clb_mode__0.ltile_fle_0.ltile_phy_fabric_0.ltile_frac_logic_0.ltile_frac_lut4_0.frac_lut4_0_.frac_lut4_mux_0_.mux_l1_in_5_/A1
+ sky130_fd_sc_hd__dfxtp_1
XFILLER_12_79 VGND VGND VPWR VPWR sky130_fd_sc_hd__fill_2
XFILLER_5_132 VGND VGND VPWR VPWR sky130_fd_sc_hd__fill_2
X_63_ VGND VGND VPWR VPWR _63_/HI _63_/LO sky130_fd_sc_hd__conb_1
Xltile_clb_mode__0.ltile_fle_2.ltile_phy_fabric_0.ltile_frac_logic_0.mux_frac_logic_out_0.mux_l1_in_0_
+ ltile_clb_mode__0.ltile_fle_2.ltile_phy_fabric_0.ltile_frac_logic_0.mux_frac_logic_out_0.mux_l1_in_0_/A0
+ ltile_clb_mode__0.ltile_fle_2.ltile_phy_fabric_0.ltile_frac_logic_0.mux_frac_logic_out_0.mux_l1_in_0_/A1
+ ltile_clb_mode__0.ltile_fle_2.ltile_phy_fabric_0.ltile_frac_logic_0.mux_frac_logic_out_0.mux_l1_in_0_/S
+ VGND VGND VPWR VPWR ltile_clb_mode__0.ltile_fle_2.ltile_phy_fabric_0.ltile_frac_logic_0.mux_frac_logic_out_0.mux_l1_in_0_/X
+ sky130_fd_sc_hd__mux2_1
XFILLER_4_80 VGND VGND VPWR VPWR sky130_fd_sc_hd__decap_12
XFILLER_23_78 VGND VGND VPWR VPWR sky130_fd_sc_hd__fill_2
Xltile_clb_mode__0.ltile_fle_6.ltile_phy_fabric_0.ltile_frac_logic_0.ltile_frac_lut4_0.frac_lut4_0_.frac_lut4_mux_0_.mux_l3_in_1_
+ ltile_clb_mode__0.ltile_fle_6.ltile_phy_fabric_0.ltile_frac_logic_0.ltile_frac_lut4_0.frac_lut4_0_.frac_lut4_mux_0_.mux_l3_in_1_/A0
+ ltile_clb_mode__0.ltile_fle_6.ltile_phy_fabric_0.ltile_frac_logic_0.ltile_frac_lut4_0.frac_lut4_0_.frac_lut4_mux_0_.mux_l3_in_1_/A1
+ ltile_clb_mode__0.ltile_fle_6.ltile_phy_fabric_0.ltile_frac_logic_0.ltile_frac_lut4_0.frac_lut4_0_.sky130_fd_sc_hd__buf_2_2_/X
+ VGND VGND VPWR VPWR ltile_clb_mode__0.ltile_fle_6.ltile_phy_fabric_0.ltile_frac_logic_0.ltile_frac_lut4_0.frac_lut4_0_.frac_lut4_mux_0_.mux_l3_in_1_/X
+ sky130_fd_sc_hd__mux2_1
Xltile_clb_mode__0.ltile_fle_7.ltile_phy_fabric_0.mux_ff_0_D_0.mux_l2_in_0_ _51_/HI
+ ltile_clb_mode__0.ltile_fle_7.ltile_phy_fabric_0.mux_ff_0_D_0.mux_l1_in_0_/X ccff_tail
+ VGND VGND VPWR VPWR ltile_clb_mode__0.ltile_fle_7.ltile_phy_fabric_0.mux_ff_0_D_0.mux_l2_in_0_/X
+ sky130_fd_sc_hd__mux2_1
Xltile_clb_mode__0.ltile_fle_5.ltile_phy_fabric_0.mem_fabric_out_1.sky130_fd_sc_hd__dfxtp_1_1_
+ ltile_clb_mode__0.ltile_fle_6.ltile_phy_fabric_0.mem_ff_0_D_0.sky130_fd_sc_hd__dfxtp_1_0_/CLK
+ ltile_clb_mode__0.ltile_fle_5.ltile_phy_fabric_0.mux_fabric_out_1.mux_l1_in_0_/S
+ VGND VGND VPWR VPWR ltile_clb_mode__0.ltile_fle_5.ltile_phy_fabric_0.mux_fabric_out_1.mux_l2_in_0_/S
+ sky130_fd_sc_hd__dfxtp_1
Xprog_clk_0_FTB00 prog_clk_0_N_in VGND VGND VPWR VPWR prog_clk_0_FTB00/X sky130_fd_sc_hd__buf_8
XFILLER_0_27 VGND VGND VPWR VPWR sky130_fd_sc_hd__decap_4
XFILLER_29_3 VGND VGND VPWR VPWR sky130_fd_sc_hd__decap_4
X_46_ VGND VGND VPWR VPWR _46_/HI _46_/LO sky130_fd_sc_hd__conb_1
XFILLER_11_212 VGND VGND VPWR VPWR sky130_fd_sc_hd__fill_2
Xltile_clb_mode__0.ltile_fle_6.ltile_phy_fabric_0.ltile_frac_logic_0.ltile_frac_lut4_0.frac_lut4_0_.frac_lut4_mux_0_.mux_l2_in_2_
+ ltile_clb_mode__0.ltile_fle_6.ltile_phy_fabric_0.ltile_frac_logic_0.ltile_frac_lut4_0.frac_lut4_0_.frac_lut4_mux_0_.mux_l1_in_5_/X
+ ltile_clb_mode__0.ltile_fle_6.ltile_phy_fabric_0.ltile_frac_logic_0.ltile_frac_lut4_0.frac_lut4_0_.frac_lut4_mux_0_.mux_l1_in_4_/X
+ ltile_clb_mode__0.ltile_fle_6.ltile_phy_fabric_0.ltile_frac_logic_0.ltile_frac_lut4_0.frac_lut4_0_.sky130_fd_sc_hd__buf_2_1_/X
+ VGND VGND VPWR VPWR ltile_clb_mode__0.ltile_fle_6.ltile_phy_fabric_0.ltile_frac_logic_0.ltile_frac_lut4_0.frac_lut4_0_.frac_lut4_mux_0_.mux_l2_in_2_/X
+ sky130_fd_sc_hd__mux2_1
XANTENNA_8 ANTENNA_8/DIODE VGND VGND VPWR VPWR sky130_fd_sc_hd__diode_2
XFILLER_29_11 VGND VGND VPWR VPWR sky130_fd_sc_hd__fill_2