* NGSPICE file created from grid_io_left.ext - technology: EFS8A

* Black-box entry subcircuit for scs8hd_decap_12 abstract view
.subckt scs8hd_decap_12 vgnd vpwr
.ends

* Black-box entry subcircuit for scs8hd_decap_8 abstract view
.subckt scs8hd_decap_8 vgnd vpwr
.ends

* Black-box entry subcircuit for scs8hd_decap_6 abstract view
.subckt scs8hd_decap_6 vgnd vpwr
.ends

* Black-box entry subcircuit for scs8hd_fill_1 abstract view
.subckt scs8hd_fill_1 vgnd vpwr
.ends

* Black-box entry subcircuit for scs8hd_tapvpwrvgnd_1 abstract view
.subckt scs8hd_tapvpwrvgnd_1 vgnd vpwr
.ends

* Black-box entry subcircuit for scs8hd_fill_2 abstract view
.subckt scs8hd_fill_2 vpwr vgnd
.ends

* Black-box entry subcircuit for scs8hd_diode_2 abstract view
.subckt scs8hd_diode_2 DIODE vgnd vpwr
.ends

* Black-box entry subcircuit for scs8hd_decap_3 abstract view
.subckt scs8hd_decap_3 vgnd vpwr
.ends

* Black-box entry subcircuit for scs8hd_ebufn_1 abstract view
.subckt scs8hd_ebufn_1 A TEB Z vgnd vpwr
.ends

* Black-box entry subcircuit for scs8hd_decap_4 abstract view
.subckt scs8hd_decap_4 vgnd vpwr
.ends

* Black-box entry subcircuit for scs8hd_lpflow_inputisolatch_1 abstract view
.subckt scs8hd_lpflow_inputisolatch_1 D Q SLEEPB vgnd vpwr
.ends

* Black-box entry subcircuit for scs8hd_and4_4 abstract view
.subckt scs8hd_and4_4 A B C D X vgnd vpwr
.ends

* Black-box entry subcircuit for scs8hd_inv_8 abstract view
.subckt scs8hd_inv_8 A Y vgnd vpwr
.ends

* Black-box entry subcircuit for scs8hd_buf_2 abstract view
.subckt scs8hd_buf_2 A X vgnd vpwr
.ends

* Black-box entry subcircuit for scs8hd_buf_1 abstract view
.subckt scs8hd_buf_1 A X vgnd vpwr
.ends

* Black-box entry subcircuit for scs8hd_nor4_4 abstract view
.subckt scs8hd_nor4_4 A B C D Y vgnd vpwr
.ends

.subckt grid_io_left address[0] address[1] address[2] address[3] data_in enable gfpga_pad_GPIO_PAD[0]
+ gfpga_pad_GPIO_PAD[1] gfpga_pad_GPIO_PAD[2] gfpga_pad_GPIO_PAD[3] gfpga_pad_GPIO_PAD[4]
+ gfpga_pad_GPIO_PAD[5] gfpga_pad_GPIO_PAD[6] gfpga_pad_GPIO_PAD[7] right_width_0_height_0__pin_0_
+ right_width_0_height_0__pin_10_ right_width_0_height_0__pin_11_ right_width_0_height_0__pin_12_
+ right_width_0_height_0__pin_13_ right_width_0_height_0__pin_14_ right_width_0_height_0__pin_15_
+ right_width_0_height_0__pin_1_ right_width_0_height_0__pin_2_ right_width_0_height_0__pin_3_
+ right_width_0_height_0__pin_4_ right_width_0_height_0__pin_5_ right_width_0_height_0__pin_6_
+ right_width_0_height_0__pin_7_ right_width_0_height_0__pin_8_ right_width_0_height_0__pin_9_
+ vpwr vgnd
XFILLER_63_39 vgnd vpwr scs8hd_decap_12
XFILLER_37_62 vgnd vpwr scs8hd_decap_12
XFILLER_37_51 vgnd vpwr scs8hd_decap_8
XFILLER_6_129 vgnd vpwr scs8hd_decap_12
XFILLER_12_32 vgnd vpwr scs8hd_decap_12
XFILLER_50_3 vgnd vpwr scs8hd_decap_12
XFILLER_56_117 vgnd vpwr scs8hd_decap_12
XFILLER_38_117 vgnd vpwr scs8hd_decap_6
XFILLER_45_62 vgnd vpwr scs8hd_decap_12
XFILLER_45_51 vgnd vpwr scs8hd_decap_8
XFILLER_29_74 vgnd vpwr scs8hd_decap_12
XFILLER_20_32 vgnd vpwr scs8hd_decap_12
XFILLER_6_56 vgnd vpwr scs8hd_decap_12
XFILLER_13_3 vgnd vpwr scs8hd_decap_12
XFILLER_40_145 vgnd vpwr scs8hd_fill_1
XFILLER_31_123 vgnd vpwr scs8hd_decap_12
XFILLER_31_86 vgnd vpwr scs8hd_decap_12
XPHY_192 vgnd vpwr scs8hd_tapvpwrvgnd_1
XPHY_181 vgnd vpwr scs8hd_tapvpwrvgnd_1
XPHY_170 vgnd vpwr scs8hd_tapvpwrvgnd_1
XFILLER_22_145 vgnd vpwr scs8hd_fill_1
XFILLER_37_74 vgnd vpwr scs8hd_decap_12
XFILLER_12_44 vgnd vpwr scs8hd_decap_12
XFILLER_53_62 vgnd vpwr scs8hd_decap_12
XFILLER_53_51 vgnd vpwr scs8hd_decap_8
XFILLER_64_94 vgnd vpwr scs8hd_decap_12
XFILLER_56_129 vgnd vpwr scs8hd_decap_12
XFILLER_43_3 vgnd vpwr scs8hd_decap_12
XFILLER_47_118 vpwr vgnd scs8hd_fill_2
XANTENNA_logical_tile_io_mode_io__4.logical_tile_io_mode_physical__iopad_0.GPIO_LATCH_mem.LATCH_0_.latch_SLEEPB
+ _10_/X vgnd vpwr scs8hd_diode_2
XFILLER_18_32 vgnd vpwr scs8hd_decap_12
XFILLER_61_143 vgnd vpwr scs8hd_decap_3
XFILLER_61_110 vgnd vpwr scs8hd_decap_12
XFILLER_29_86 vgnd vpwr scs8hd_decap_12
XFILLER_20_44 vgnd vpwr scs8hd_decap_12
XFILLER_61_62 vgnd vpwr scs8hd_decap_12
XFILLER_61_51 vgnd vpwr scs8hd_decap_8
XFILLER_45_74 vgnd vpwr scs8hd_decap_12
XFILLER_43_143 vgnd vpwr scs8hd_decap_3
XFILLER_43_110 vgnd vpwr scs8hd_decap_12
XFILLER_6_68 vgnd vpwr scs8hd_decap_12
XFILLER_25_143 vgnd vpwr scs8hd_decap_3
XFILLER_25_110 vgnd vpwr scs8hd_decap_12
XFILLER_31_135 vgnd vpwr scs8hd_decap_8
XFILLER_31_98 vgnd vpwr scs8hd_decap_12
XPHY_193 vgnd vpwr scs8hd_tapvpwrvgnd_1
XPHY_182 vgnd vpwr scs8hd_tapvpwrvgnd_1
XPHY_171 vgnd vpwr scs8hd_tapvpwrvgnd_1
XPHY_160 vgnd vpwr scs8hd_tapvpwrvgnd_1
XFILLER_15_99 vpwr vgnd scs8hd_fill_2
XFILLER_16_110 vgnd vpwr scs8hd_decap_12
XFILLER_26_32 vgnd vpwr scs8hd_decap_12
XFILLER_13_113 vpwr vgnd scs8hd_fill_2
XFILLER_13_135 vgnd vpwr scs8hd_decap_8
XFILLER_10_105 vgnd vpwr scs8hd_decap_12
XFILLER_12_56 vgnd vpwr scs8hd_decap_12
XFILLER_53_74 vgnd vpwr scs8hd_decap_12
XFILLER_37_86 vgnd vpwr scs8hd_decap_12
XFILLER_5_131 vgnd vpwr scs8hd_decap_12
XFILLER_3_3 vgnd vpwr scs8hd_decap_12
XFILLER_2_145 vgnd vpwr scs8hd_fill_1
XFILLER_0_15 vgnd vpwr scs8hd_decap_12
XFILLER_36_3 vgnd vpwr scs8hd_decap_12
XFILLER_34_32 vgnd vpwr scs8hd_decap_12
XFILLER_18_44 vgnd vpwr scs8hd_decap_12
XFILLER_59_62 vgnd vpwr scs8hd_decap_12
XFILLER_59_51 vgnd vpwr scs8hd_decap_8
XFILLER_20_56 vgnd vpwr scs8hd_decap_12
XFILLER_61_74 vgnd vpwr scs8hd_decap_12
XFILLER_45_86 vgnd vpwr scs8hd_decap_12
XFILLER_29_98 vgnd vpwr scs8hd_decap_12
XANTENNA__04__A address[3] vgnd vpwr scs8hd_diode_2
XFILLER_16_122 vgnd vpwr scs8hd_decap_12
XPHY_194 vgnd vpwr scs8hd_tapvpwrvgnd_1
XPHY_183 vgnd vpwr scs8hd_tapvpwrvgnd_1
XFILLER_22_125 vgnd vpwr scs8hd_decap_12
XPHY_172 vgnd vpwr scs8hd_tapvpwrvgnd_1
XPHY_150 vgnd vpwr scs8hd_tapvpwrvgnd_1
XPHY_161 vgnd vpwr scs8hd_tapvpwrvgnd_1
XFILLER_42_32 vgnd vpwr scs8hd_decap_12
XFILLER_26_88 vgnd vpwr scs8hd_fill_1
XFILLER_26_44 vgnd vpwr scs8hd_decap_12
XFILLER_3_59 vpwr vgnd scs8hd_fill_2
XFILLER_3_15 vgnd vpwr scs8hd_decap_12
XFILLER_10_117 vgnd vpwr scs8hd_decap_12
XFILLER_12_68 vgnd vpwr scs8hd_decap_12
XFILLER_53_86 vgnd vpwr scs8hd_decap_12
XFILLER_37_98 vgnd vpwr scs8hd_decap_12
XFILLER_5_121 vgnd vpwr scs8hd_fill_1
XFILLER_5_143 vgnd vpwr scs8hd_decap_3
Xlogical_tile_io_mode_io__4.logical_tile_io_mode_physical__iopad_0.GPIO_0_.buffer
+ right_width_0_height_0__pin_8_ logical_tile_io_mode_io__4.logical_tile_io_mode_physical__iopad_0.GPIO_0_.buffer/TEB
+ gfpga_pad_GPIO_PAD[4] vgnd vpwr scs8hd_ebufn_1
XFILLER_23_89 vpwr vgnd scs8hd_fill_2
XFILLER_0_27 vgnd vpwr scs8hd_decap_4
XANTENNA__12__A _10_/A vgnd vpwr scs8hd_diode_2
XFILLER_64_63 vgnd vpwr scs8hd_decap_12
XFILLER_29_3 vgnd vpwr scs8hd_decap_12
XFILLER_34_44 vgnd vpwr scs8hd_decap_12
XANTENNA__07__A _07_/A vgnd vpwr scs8hd_diode_2
XFILLER_18_56 vgnd vpwr scs8hd_decap_12
XFILLER_61_123 vgnd vpwr scs8hd_decap_12
XFILLER_59_74 vgnd vpwr scs8hd_decap_12
XFILLER_50_32 vgnd vpwr scs8hd_decap_12
XFILLER_52_145 vgnd vpwr scs8hd_fill_1
XFILLER_61_86 vgnd vpwr scs8hd_decap_12
XFILLER_45_98 vgnd vpwr scs8hd_decap_12
XFILLER_43_123 vgnd vpwr scs8hd_decap_12
XFILLER_20_68 vgnd vpwr scs8hd_decap_4
XFILLER_6_15 vgnd vpwr scs8hd_decap_12
XFILLER_34_145 vgnd vpwr scs8hd_fill_1
XFILLER_25_123 vgnd vpwr scs8hd_decap_12
XANTENNA__20__A gfpga_pad_GPIO_PAD[1] vgnd vpwr scs8hd_diode_2
XPHY_195 vgnd vpwr scs8hd_tapvpwrvgnd_1
XPHY_184 vgnd vpwr scs8hd_tapvpwrvgnd_1
XPHY_173 vgnd vpwr scs8hd_tapvpwrvgnd_1
XPHY_140 vgnd vpwr scs8hd_tapvpwrvgnd_1
XPHY_151 vgnd vpwr scs8hd_tapvpwrvgnd_1
XFILLER_11_3 vgnd vpwr scs8hd_decap_12
XPHY_162 vgnd vpwr scs8hd_tapvpwrvgnd_1
XFILLER_16_134 vgnd vpwr scs8hd_decap_12
XFILLER_26_56 vgnd vpwr scs8hd_decap_12
XFILLER_22_137 vgnd vpwr scs8hd_decap_8
XFILLER_42_44 vgnd vpwr scs8hd_decap_12
XANTENNA__15__A address[1] vgnd vpwr scs8hd_diode_2
XFILLER_3_27 vgnd vpwr scs8hd_decap_12
XFILLER_59_3 vgnd vpwr scs8hd_decap_12
XFILLER_8_141 vgnd vpwr scs8hd_decap_4
XFILLER_10_129 vgnd vpwr scs8hd_decap_12
XFILLER_53_98 vgnd vpwr scs8hd_decap_12
XFILLER_48_32 vgnd vpwr scs8hd_decap_12
Xlogical_tile_io_mode_io__3.logical_tile_io_mode_physical__iopad_0.GPIO_LATCH_mem.LATCH_0_.latch
+ data_in logical_tile_io_mode_io__3.logical_tile_io_mode_physical__iopad_0.GPIO_0_.buffer/TEB
+ _12_/Y vgnd vpwr scs8hd_lpflow_inputisolatch_1
XFILLER_2_125 vgnd vpwr scs8hd_decap_12
XANTENNA__12__B _12_/B vgnd vpwr scs8hd_diode_2
XFILLER_64_75 vgnd vpwr scs8hd_decap_12
XFILLER_9_15 vgnd vpwr scs8hd_decap_12
XFILLER_9_59 vpwr vgnd scs8hd_fill_2
XFILLER_55_143 vgnd vpwr scs8hd_decap_3
XFILLER_55_110 vgnd vpwr scs8hd_decap_12
XFILLER_18_68 vgnd vpwr scs8hd_decap_12
XFILLER_61_135 vgnd vpwr scs8hd_decap_8
XFILLER_59_86 vgnd vpwr scs8hd_decap_12
XFILLER_50_44 vgnd vpwr scs8hd_decap_12
XANTENNA__23__A gfpga_pad_GPIO_PAD[4] vgnd vpwr scs8hd_diode_2
XFILLER_34_56 vgnd vpwr scs8hd_decap_12
XANTENNA__07__B address[2] vgnd vpwr scs8hd_diode_2
XFILLER_41_3 vgnd vpwr scs8hd_decap_12
XFILLER_37_143 vgnd vpwr scs8hd_decap_3
XFILLER_37_110 vgnd vpwr scs8hd_decap_12
XFILLER_61_98 vgnd vpwr scs8hd_decap_12
XANTENNA__18__A gfpga_pad_GPIO_PAD[7] vgnd vpwr scs8hd_diode_2
XFILLER_43_135 vgnd vpwr scs8hd_decap_8
XFILLER_19_143 vgnd vpwr scs8hd_decap_3
XFILLER_6_27 vgnd vpwr scs8hd_decap_4
XFILLER_10_80 vgnd vpwr scs8hd_decap_12
XFILLER_40_105 vgnd vpwr scs8hd_decap_12
XFILLER_25_135 vgnd vpwr scs8hd_decap_8
XFILLER_25_102 vpwr vgnd scs8hd_fill_2
XFILLER_56_32 vgnd vpwr scs8hd_decap_12
XPHY_196 vgnd vpwr scs8hd_tapvpwrvgnd_1
XPHY_185 vgnd vpwr scs8hd_tapvpwrvgnd_1
XPHY_174 vgnd vpwr scs8hd_tapvpwrvgnd_1
XPHY_130 vgnd vpwr scs8hd_tapvpwrvgnd_1
XPHY_141 vgnd vpwr scs8hd_tapvpwrvgnd_1
XPHY_152 vgnd vpwr scs8hd_tapvpwrvgnd_1
XPHY_163 vgnd vpwr scs8hd_tapvpwrvgnd_1
XFILLER_42_56 vgnd vpwr scs8hd_decap_12
XFILLER_26_68 vgnd vpwr scs8hd_decap_12
XANTENNA__15__B _12_/B vgnd vpwr scs8hd_diode_2
XFILLER_3_39 vgnd vpwr scs8hd_decap_12
XFILLER_12_15 vgnd vpwr scs8hd_decap_12
XANTENNA__12__C _07_/A vgnd vpwr scs8hd_diode_2
XFILLER_64_87 vgnd vpwr scs8hd_decap_6
XFILLER_64_32 vgnd vpwr scs8hd_decap_12
XFILLER_58_141 vgnd vpwr scs8hd_decap_4
XFILLER_48_44 vgnd vpwr scs8hd_decap_12
XFILLER_2_137 vgnd vpwr scs8hd_decap_8
XFILLER_9_27 vgnd vpwr scs8hd_decap_12
XFILLER_59_98 vgnd vpwr scs8hd_decap_12
XFILLER_50_56 vgnd vpwr scs8hd_decap_12
XFILLER_34_68 vgnd vpwr scs8hd_decap_12
XANTENNA__07__C _10_/A vgnd vpwr scs8hd_diode_2
XFILLER_1_3 vgnd vpwr scs8hd_decap_12
XFILLER_34_3 vgnd vpwr scs8hd_decap_12
XFILLER_28_144 vpwr vgnd scs8hd_fill_2
XFILLER_20_15 vgnd vpwr scs8hd_decap_12
XFILLER_19_111 vgnd vpwr scs8hd_fill_1
XFILLER_40_117 vgnd vpwr scs8hd_decap_12
XFILLER_15_15 vgnd vpwr scs8hd_decap_12
XFILLER_15_59 vpwr vgnd scs8hd_fill_2
XPHY_120 vgnd vpwr scs8hd_decap_3
XFILLER_56_44 vgnd vpwr scs8hd_decap_12
XPHY_197 vgnd vpwr scs8hd_tapvpwrvgnd_1
XPHY_186 vgnd vpwr scs8hd_tapvpwrvgnd_1
XPHY_175 vgnd vpwr scs8hd_tapvpwrvgnd_1
XPHY_131 vgnd vpwr scs8hd_tapvpwrvgnd_1
XPHY_142 vgnd vpwr scs8hd_tapvpwrvgnd_1
XPHY_153 vgnd vpwr scs8hd_tapvpwrvgnd_1
XPHY_164 vgnd vpwr scs8hd_tapvpwrvgnd_1
XPHY_0 vgnd vpwr scs8hd_decap_3
XFILLER_42_68 vgnd vpwr scs8hd_decap_12
XANTENNA__15__C _07_/A vgnd vpwr scs8hd_diode_2
XFILLER_13_117 vgnd vpwr scs8hd_decap_3
XFILLER_16_80 vgnd vpwr scs8hd_decap_12
XFILLER_12_27 vgnd vpwr scs8hd_decap_4
XFILLER_27_90 vpwr vgnd scs8hd_fill_2
XFILLER_64_3 vgnd vpwr scs8hd_decap_12
XFILLER_23_59 vpwr vgnd scs8hd_fill_2
XFILLER_23_15 vgnd vpwr scs8hd_decap_12
XFILLER_64_44 vgnd vpwr scs8hd_decap_12
XFILLER_48_56 vgnd vpwr scs8hd_decap_12
XFILLER_9_39 vgnd vpwr scs8hd_decap_12
XANTENNA__12__D _10_/D vgnd vpwr scs8hd_diode_2
XFILLER_64_145 vgnd vpwr scs8hd_fill_1
XFILLER_55_123 vgnd vpwr scs8hd_decap_12
XFILLER_50_68 vgnd vpwr scs8hd_decap_12
XANTENNA__07__D enable vgnd vpwr scs8hd_diode_2
XFILLER_18_15 vgnd vpwr scs8hd_decap_12
XANTENNA_logical_tile_io_mode_io__7.logical_tile_io_mode_physical__iopad_0.GPIO_0_.buffer_TEB
+ logical_tile_io_mode_io__7.logical_tile_io_mode_physical__iopad_0.GPIO_0_.buffer/TEB
+ vgnd vpwr scs8hd_diode_2
XFILLER_46_145 vgnd vpwr scs8hd_fill_1
XFILLER_27_3 vgnd vpwr scs8hd_decap_12
XFILLER_24_91 vgnd vpwr scs8hd_fill_1
XFILLER_24_80 vgnd vpwr scs8hd_decap_8
XFILLER_37_123 vgnd vpwr scs8hd_decap_12
XFILLER_20_27 vgnd vpwr scs8hd_decap_4
XFILLER_1_62 vgnd vpwr scs8hd_decap_12
XFILLER_1_51 vgnd vpwr scs8hd_decap_8
XFILLER_19_123 vgnd vpwr scs8hd_decap_12
XFILLER_10_93 vgnd vpwr scs8hd_decap_12
XFILLER_40_129 vgnd vpwr scs8hd_decap_12
X_09_ address[1] enable address[3] _10_/D _09_/X vgnd vpwr scs8hd_and4_4
XFILLER_15_27 vgnd vpwr scs8hd_decap_12
XPHY_121 vgnd vpwr scs8hd_decap_3
XFILLER_56_56 vgnd vpwr scs8hd_decap_12
XPHY_110 vgnd vpwr scs8hd_decap_3
XPHY_198 vgnd vpwr scs8hd_tapvpwrvgnd_1
XFILLER_31_59 vpwr vgnd scs8hd_fill_2
XFILLER_31_15 vgnd vpwr scs8hd_decap_12
XPHY_187 vgnd vpwr scs8hd_tapvpwrvgnd_1
XPHY_176 vgnd vpwr scs8hd_tapvpwrvgnd_1
XPHY_132 vgnd vpwr scs8hd_tapvpwrvgnd_1
XPHY_143 vgnd vpwr scs8hd_tapvpwrvgnd_1
XPHY_154 vgnd vpwr scs8hd_tapvpwrvgnd_1
XPHY_165 vgnd vpwr scs8hd_tapvpwrvgnd_1
XPHY_1 vgnd vpwr scs8hd_decap_3
XFILLER_26_15 vgnd vpwr scs8hd_decap_12
XANTENNA__15__D address[2] vgnd vpwr scs8hd_diode_2
XFILLER_32_80 vgnd vpwr scs8hd_decap_12
XFILLER_57_3 vgnd vpwr scs8hd_decap_12
XFILLER_4_84 vgnd vpwr scs8hd_decap_3
XFILLER_64_56 vgnd vpwr scs8hd_decap_6
XFILLER_48_68 vgnd vpwr scs8hd_decap_12
XFILLER_23_27 vgnd vpwr scs8hd_decap_12
XFILLER_49_143 vgnd vpwr scs8hd_decap_3
XFILLER_49_110 vgnd vpwr scs8hd_decap_12
XFILLER_55_135 vgnd vpwr scs8hd_decap_8
XFILLER_34_15 vgnd vpwr scs8hd_decap_12
XFILLER_18_27 vgnd vpwr scs8hd_decap_4
XFILLER_40_80 vgnd vpwr scs8hd_decap_12
XFILLER_52_105 vgnd vpwr scs8hd_decap_12
XFILLER_37_135 vgnd vpwr scs8hd_decap_8
XFILLER_29_15 vgnd vpwr scs8hd_decap_12
XFILLER_1_74 vgnd vpwr scs8hd_decap_12
XFILLER_29_59 vpwr vgnd scs8hd_fill_2
XFILLER_28_124 vgnd vpwr scs8hd_decap_12
Xlogical_tile_io_mode_io__5.logical_tile_io_mode_physical__iopad_0.GPIO_0_.buffer
+ right_width_0_height_0__pin_10_ logical_tile_io_mode_io__5.logical_tile_io_mode_physical__iopad_0.GPIO_0_.buffer/TEB
+ gfpga_pad_GPIO_PAD[5] vgnd vpwr scs8hd_ebufn_1
XFILLER_34_105 vgnd vpwr scs8hd_decap_12
X_08_ address[2] _10_/D vgnd vpwr scs8hd_inv_8
XFILLER_19_135 vgnd vpwr scs8hd_decap_8
XFILLER_19_70 vgnd vpwr scs8hd_decap_3
XFILLER_56_68 vgnd vpwr scs8hd_decap_12
XANTENNA_logical_tile_io_mode_io__7.logical_tile_io_mode_physical__iopad_0.GPIO_0_.buffer_A
+ right_width_0_height_0__pin_14_ vgnd vpwr scs8hd_diode_2
XPHY_100 vgnd vpwr scs8hd_decap_3
XANTENNA_logical_tile_io_mode_io__5.logical_tile_io_mode_physical__iopad_0.GPIO_0_.buffer_TEB
+ logical_tile_io_mode_io__5.logical_tile_io_mode_physical__iopad_0.GPIO_0_.buffer/TEB
+ vgnd vpwr scs8hd_diode_2
XFILLER_31_27 vgnd vpwr scs8hd_decap_12
XFILLER_15_39 vgnd vpwr scs8hd_decap_12
XPHY_122 vgnd vpwr scs8hd_decap_3
XPHY_111 vgnd vpwr scs8hd_decap_3
XPHY_199 vgnd vpwr scs8hd_tapvpwrvgnd_1
XFILLER_30_130 vgnd vpwr scs8hd_decap_12
XPHY_188 vgnd vpwr scs8hd_tapvpwrvgnd_1
XPHY_177 vgnd vpwr scs8hd_tapvpwrvgnd_1
XPHY_133 vgnd vpwr scs8hd_tapvpwrvgnd_1
XPHY_2 vgnd vpwr scs8hd_decap_3
XPHY_144 vgnd vpwr scs8hd_tapvpwrvgnd_1
XPHY_155 vgnd vpwr scs8hd_tapvpwrvgnd_1
XPHY_166 vgnd vpwr scs8hd_tapvpwrvgnd_1
XFILLER_42_15 vgnd vpwr scs8hd_decap_12
XFILLER_26_27 vgnd vpwr scs8hd_decap_4
XFILLER_7_51 vgnd vpwr scs8hd_decap_8
XFILLER_7_62 vgnd vpwr scs8hd_decap_12
XFILLER_8_145 vgnd vpwr scs8hd_fill_1
XFILLER_37_59 vpwr vgnd scs8hd_fill_2
XFILLER_37_15 vgnd vpwr scs8hd_decap_12
XFILLER_4_74 vgnd vpwr scs8hd_fill_1
XFILLER_4_96 vgnd vpwr scs8hd_decap_12
XFILLER_23_39 vgnd vpwr scs8hd_decap_12
XFILLER_64_125 vgnd vpwr scs8hd_decap_12
XANTENNA_logical_tile_io_mode_io__5.logical_tile_io_mode_physical__iopad_0.GPIO_0_.buffer_A
+ right_width_0_height_0__pin_10_ vgnd vpwr scs8hd_diode_2
XFILLER_38_80 vgnd vpwr scs8hd_decap_12
XFILLER_34_27 vgnd vpwr scs8hd_decap_4
XFILLER_50_15 vgnd vpwr scs8hd_decap_12
XFILLER_46_125 vgnd vpwr scs8hd_decap_12
XFILLER_52_117 vgnd vpwr scs8hd_decap_12
XFILLER_1_86 vgnd vpwr scs8hd_decap_12
XFILLER_45_59 vpwr vgnd scs8hd_fill_2
XFILLER_45_15 vgnd vpwr scs8hd_decap_12
XFILLER_29_27 vgnd vpwr scs8hd_decap_12
XFILLER_28_136 vgnd vpwr scs8hd_decap_8
XFILLER_34_117 vgnd vpwr scs8hd_decap_12
XFILLER_32_3 vgnd vpwr scs8hd_decap_12
XFILLER_19_114 vpwr vgnd scs8hd_fill_2
XFILLER_31_39 vgnd vpwr scs8hd_decap_12
X_07_ _07_/A address[2] _10_/A enable _07_/X vgnd vpwr scs8hd_and4_4
XFILLER_25_106 vpwr vgnd scs8hd_fill_2
XPHY_123 vgnd vpwr scs8hd_decap_3
XPHY_112 vgnd vpwr scs8hd_decap_3
XPHY_101 vgnd vpwr scs8hd_decap_3
XPHY_189 vgnd vpwr scs8hd_tapvpwrvgnd_1
XPHY_178 vgnd vpwr scs8hd_tapvpwrvgnd_1
XPHY_134 vgnd vpwr scs8hd_tapvpwrvgnd_1
XPHY_145 vgnd vpwr scs8hd_tapvpwrvgnd_1
XPHY_156 vgnd vpwr scs8hd_tapvpwrvgnd_1
XPHY_167 vgnd vpwr scs8hd_tapvpwrvgnd_1
XFILLER_46_80 vgnd vpwr scs8hd_decap_12
XFILLER_30_142 vgnd vpwr scs8hd_decap_4
XFILLER_22_109 vgnd vpwr scs8hd_decap_12
XANTENNA_logical_tile_io_mode_io__3.logical_tile_io_mode_physical__iopad_0.GPIO_0_.buffer_A
+ right_width_0_height_0__pin_6_ vgnd vpwr scs8hd_diode_2
XPHY_3 vgnd vpwr scs8hd_decap_3
XFILLER_7_74 vgnd vpwr scs8hd_decap_12
XFILLER_42_27 vgnd vpwr scs8hd_decap_4
XFILLER_21_131 vgnd vpwr scs8hd_decap_12
XFILLER_32_93 vgnd vpwr scs8hd_decap_12
XANTENNA_logical_tile_io_mode_io__3.logical_tile_io_mode_physical__iopad_0.GPIO_0_.buffer_TEB
+ logical_tile_io_mode_io__3.logical_tile_io_mode_physical__iopad_0.GPIO_0_.buffer/TEB
+ vgnd vpwr scs8hd_diode_2
XFILLER_53_59 vpwr vgnd scs8hd_fill_2
XFILLER_53_15 vgnd vpwr scs8hd_decap_12
XFILLER_37_27 vgnd vpwr scs8hd_decap_12
XFILLER_5_105 vgnd vpwr scs8hd_decap_12
XFILLER_5_127 vpwr vgnd scs8hd_fill_2
XFILLER_27_82 vpwr vgnd scs8hd_fill_2
XFILLER_48_15 vgnd vpwr scs8hd_decap_12
XFILLER_58_145 vgnd vpwr scs8hd_fill_1
XFILLER_49_123 vgnd vpwr scs8hd_decap_12
XFILLER_13_51 vgnd vpwr scs8hd_decap_8
XFILLER_13_62 vgnd vpwr scs8hd_decap_12
XFILLER_64_137 vgnd vpwr scs8hd_decap_8
XFILLER_62_3 vgnd vpwr scs8hd_decap_12
XFILLER_54_80 vgnd vpwr scs8hd_decap_12
XFILLER_50_27 vgnd vpwr scs8hd_decap_4
XFILLER_46_137 vgnd vpwr scs8hd_decap_8
XANTENNA_logical_tile_io_mode_io__1.logical_tile_io_mode_physical__iopad_0.GPIO_0_.buffer_A
+ right_width_0_height_0__pin_2_ vgnd vpwr scs8hd_diode_2
XFILLER_52_129 vgnd vpwr scs8hd_decap_12
XFILLER_40_93 vgnd vpwr scs8hd_decap_12
X_23_ gfpga_pad_GPIO_PAD[4] right_width_0_height_0__pin_9_ vgnd vpwr scs8hd_buf_2
XFILLER_1_98 vgnd vpwr scs8hd_decap_8
XFILLER_61_59 vpwr vgnd scs8hd_fill_2
XFILLER_61_15 vgnd vpwr scs8hd_decap_12
XFILLER_45_27 vgnd vpwr scs8hd_decap_12
XFILLER_29_39 vgnd vpwr scs8hd_decap_12
XANTENNA_logical_tile_io_mode_io__3.logical_tile_io_mode_physical__iopad_0.GPIO_LATCH_mem.LATCH_0_.latch_SLEEPB
+ _12_/Y vgnd vpwr scs8hd_diode_2
XFILLER_34_129 vgnd vpwr scs8hd_decap_12
XFILLER_25_3 vgnd vpwr scs8hd_decap_12
X_06_ address[1] _10_/A vgnd vpwr scs8hd_inv_8
XPHY_124 vgnd vpwr scs8hd_decap_3
XPHY_113 vgnd vpwr scs8hd_decap_3
XFILLER_56_15 vgnd vpwr scs8hd_decap_12
XPHY_102 vgnd vpwr scs8hd_decap_3
XPHY_179 vgnd vpwr scs8hd_tapvpwrvgnd_1
XFILLER_21_62 vgnd vpwr scs8hd_decap_12
XFILLER_21_51 vgnd vpwr scs8hd_decap_8
XPHY_168 vgnd vpwr scs8hd_tapvpwrvgnd_1
XPHY_135 vgnd vpwr scs8hd_tapvpwrvgnd_1
XPHY_146 vgnd vpwr scs8hd_tapvpwrvgnd_1
XPHY_157 vgnd vpwr scs8hd_tapvpwrvgnd_1
XFILLER_62_80 vgnd vpwr scs8hd_decap_12
XFILLER_30_121 vgnd vpwr scs8hd_fill_1
XPHY_4 vgnd vpwr scs8hd_decap_3
XFILLER_7_86 vgnd vpwr scs8hd_decap_12
XFILLER_21_143 vgnd vpwr scs8hd_decap_3
XFILLER_21_110 vgnd vpwr scs8hd_decap_8
XFILLER_53_27 vgnd vpwr scs8hd_decap_12
XFILLER_37_39 vgnd vpwr scs8hd_decap_12
XFILLER_5_117 vgnd vpwr scs8hd_decap_4
XFILLER_4_32 vgnd vpwr scs8hd_decap_12
XFILLER_64_15 vgnd vpwr scs8hd_decap_12
XFILLER_48_27 vgnd vpwr scs8hd_decap_4
XANTENNA_logical_tile_io_mode_io__1.logical_tile_io_mode_physical__iopad_0.GPIO_0_.buffer_TEB
+ logical_tile_io_mode_io__1.logical_tile_io_mode_physical__iopad_0.GPIO_0_.buffer/TEB
+ vgnd vpwr scs8hd_diode_2
XFILLER_1_131 vgnd vpwr scs8hd_decap_12
XFILLER_13_74 vgnd vpwr scs8hd_decap_12
XFILLER_55_3 vgnd vpwr scs8hd_decap_12
XFILLER_49_135 vgnd vpwr scs8hd_decap_8
Xlogical_tile_io_mode_io__7.logical_tile_io_mode_physical__iopad_0.GPIO_LATCH_mem.LATCH_0_.latch
+ data_in logical_tile_io_mode_io__7.logical_tile_io_mode_physical__iopad_0.GPIO_0_.buffer/TEB
+ _05_/X vgnd vpwr scs8hd_lpflow_inputisolatch_1
XFILLER_38_93 vgnd vpwr scs8hd_decap_12
XFILLER_59_59 vpwr vgnd scs8hd_fill_2
XFILLER_59_15 vgnd vpwr scs8hd_decap_12
XFILLER_46_105 vgnd vpwr scs8hd_decap_12
X_22_ gfpga_pad_GPIO_PAD[3] right_width_0_height_0__pin_7_ vgnd vpwr scs8hd_buf_2
XFILLER_60_141 vgnd vpwr scs8hd_decap_4
XFILLER_45_39 vgnd vpwr scs8hd_decap_12
XFILLER_61_27 vgnd vpwr scs8hd_decap_12
XFILLER_19_62 vgnd vpwr scs8hd_decap_8
XFILLER_19_51 vgnd vpwr scs8hd_decap_8
X_05_ _07_/A address[2] address[1] enable _05_/X vgnd vpwr scs8hd_and4_4
XFILLER_18_3 vgnd vpwr scs8hd_decap_12
XPHY_125 vgnd vpwr scs8hd_decap_3
XPHY_114 vgnd vpwr scs8hd_decap_3
XFILLER_56_27 vgnd vpwr scs8hd_decap_4
XPHY_103 vgnd vpwr scs8hd_decap_3
XFILLER_21_74 vgnd vpwr scs8hd_decap_12
XPHY_169 vgnd vpwr scs8hd_tapvpwrvgnd_1
XPHY_136 vgnd vpwr scs8hd_tapvpwrvgnd_1
XPHY_147 vgnd vpwr scs8hd_tapvpwrvgnd_1
XPHY_158 vgnd vpwr scs8hd_tapvpwrvgnd_1
XFILLER_46_93 vgnd vpwr scs8hd_decap_12
XPHY_5 vgnd vpwr scs8hd_decap_3
XFILLER_7_98 vgnd vpwr scs8hd_decap_12
XFILLER_53_39 vgnd vpwr scs8hd_decap_12
XFILLER_27_62 vgnd vpwr scs8hd_decap_12
XFILLER_27_51 vgnd vpwr scs8hd_decap_8
XFILLER_4_44 vgnd vpwr scs8hd_decap_12
XFILLER_64_27 vgnd vpwr scs8hd_decap_4
XFILLER_13_86 vgnd vpwr scs8hd_decap_12
XFILLER_64_106 vgnd vpwr scs8hd_decap_12
XFILLER_54_93 vgnd vpwr scs8hd_decap_12
XFILLER_1_143 vgnd vpwr scs8hd_decap_3
XFILLER_1_121 vgnd vpwr scs8hd_fill_1
XFILLER_59_27 vgnd vpwr scs8hd_decap_12
XFILLER_48_3 vgnd vpwr scs8hd_decap_12
XFILLER_46_117 vgnd vpwr scs8hd_decap_6
X_21_ gfpga_pad_GPIO_PAD[2] right_width_0_height_0__pin_5_ vgnd vpwr scs8hd_buf_2
XFILLER_61_39 vgnd vpwr scs8hd_decap_12
XFILLER_51_131 vgnd vpwr scs8hd_decap_12
XFILLER_35_51 vgnd vpwr scs8hd_decap_8
XFILLER_10_32 vgnd vpwr scs8hd_decap_12
XFILLER_35_62 vgnd vpwr scs8hd_decap_12
XFILLER_33_131 vgnd vpwr scs8hd_decap_12
X_04_ address[3] _07_/A vgnd vpwr scs8hd_buf_1
Xlogical_tile_io_mode_io__2.logical_tile_io_mode_physical__iopad_0.GPIO_LATCH_mem.LATCH_0_.latch
+ data_in logical_tile_io_mode_io__2.logical_tile_io_mode_physical__iopad_0.GPIO_0_.buffer/TEB
+ _13_/Y vgnd vpwr scs8hd_lpflow_inputisolatch_1
XPHY_126 vgnd vpwr scs8hd_decap_3
XPHY_115 vgnd vpwr scs8hd_decap_3
XPHY_104 vgnd vpwr scs8hd_decap_3
XPHY_137 vgnd vpwr scs8hd_tapvpwrvgnd_1
XPHY_148 vgnd vpwr scs8hd_tapvpwrvgnd_1
XPHY_159 vgnd vpwr scs8hd_tapvpwrvgnd_1
XFILLER_62_93 vgnd vpwr scs8hd_decap_12
XFILLER_21_86 vgnd vpwr scs8hd_decap_12
XPHY_6 vgnd vpwr scs8hd_decap_3
XFILLER_30_3 vgnd vpwr scs8hd_decap_12
XFILLER_8_105 vgnd vpwr scs8hd_decap_12
XFILLER_12_145 vgnd vpwr scs8hd_fill_1
Xlogical_tile_io_mode_io__6.logical_tile_io_mode_physical__iopad_0.GPIO_0_.buffer
+ right_width_0_height_0__pin_12_ logical_tile_io_mode_io__6.logical_tile_io_mode_physical__iopad_0.GPIO_0_.buffer/TEB
+ gfpga_pad_GPIO_PAD[6] vgnd vpwr scs8hd_ebufn_1
XFILLER_43_62 vgnd vpwr scs8hd_decap_12
XFILLER_43_51 vgnd vpwr scs8hd_decap_8
XFILLER_27_74 vgnd vpwr scs8hd_decap_8
XFILLER_4_56 vgnd vpwr scs8hd_decap_12
XFILLER_4_89 vgnd vpwr scs8hd_decap_3
XANTENNA_logical_tile_io_mode_io__0.logical_tile_io_mode_physical__iopad_0.GPIO_LATCH_mem.LATCH_0_.latch_D
+ data_in vgnd vpwr scs8hd_diode_2
XFILLER_64_118 vgnd vpwr scs8hd_decap_6
XFILLER_1_111 vpwr vgnd scs8hd_fill_2
XFILLER_8_3 vgnd vpwr scs8hd_decap_12
XFILLER_13_98 vgnd vpwr scs8hd_decap_12
XFILLER_59_39 vgnd vpwr scs8hd_decap_12
XFILLER_60_3 vgnd vpwr scs8hd_decap_12
XANTENNA_logical_tile_io_mode_io__1.logical_tile_io_mode_physical__iopad_0.GPIO_LATCH_mem.LATCH_0_.latch_D
+ data_in vgnd vpwr scs8hd_diode_2
X_20_ gfpga_pad_GPIO_PAD[1] right_width_0_height_0__pin_3_ vgnd vpwr scs8hd_buf_2
XFILLER_51_143 vgnd vpwr scs8hd_decap_3
XFILLER_51_110 vgnd vpwr scs8hd_decap_12
XFILLER_19_118 vgnd vpwr scs8hd_decap_4
XFILLER_10_44 vgnd vpwr scs8hd_decap_12
XFILLER_51_62 vgnd vpwr scs8hd_decap_12
XFILLER_51_51 vgnd vpwr scs8hd_decap_8
XFILLER_35_74 vgnd vpwr scs8hd_decap_12
XFILLER_19_75 vgnd vpwr scs8hd_decap_12
XPHY_116 vgnd vpwr scs8hd_decap_3
XPHY_105 vgnd vpwr scs8hd_decap_3
XFILLER_33_143 vgnd vpwr scs8hd_decap_3
XFILLER_33_110 vgnd vpwr scs8hd_decap_12
XPHY_127 vgnd vpwr scs8hd_decap_3
XFILLER_21_98 vgnd vpwr scs8hd_decap_12
XPHY_138 vgnd vpwr scs8hd_tapvpwrvgnd_1
XPHY_7 vgnd vpwr scs8hd_decap_3
XPHY_149 vgnd vpwr scs8hd_tapvpwrvgnd_1
XANTENNA_logical_tile_io_mode_io__2.logical_tile_io_mode_physical__iopad_0.GPIO_LATCH_mem.LATCH_0_.latch_D
+ data_in vgnd vpwr scs8hd_diode_2
XFILLER_15_121 vgnd vpwr scs8hd_fill_1
XFILLER_15_143 vgnd vpwr scs8hd_decap_3
XFILLER_23_3 vgnd vpwr scs8hd_decap_12
XANTENNA_logical_tile_io_mode_io__7.logical_tile_io_mode_physical__iopad_0.GPIO_LATCH_mem.LATCH_0_.latch_SLEEPB
+ _05_/X vgnd vpwr scs8hd_diode_2
XFILLER_8_117 vgnd vpwr scs8hd_decap_12
XFILLER_16_32 vgnd vpwr scs8hd_decap_12
XANTENNA_logical_tile_io_mode_io__3.logical_tile_io_mode_physical__iopad_0.GPIO_LATCH_mem.LATCH_0_.latch_D
+ data_in vgnd vpwr scs8hd_diode_2
XFILLER_43_74 vgnd vpwr scs8hd_decap_12
XFILLER_27_86 vpwr vgnd scs8hd_fill_2
XFILLER_4_68 vgnd vpwr scs8hd_decap_6
XFILLER_58_105 vgnd vpwr scs8hd_decap_12
XANTENNA_logical_tile_io_mode_io__4.logical_tile_io_mode_physical__iopad_0.GPIO_LATCH_mem.LATCH_0_.latch_D
+ data_in vgnd vpwr scs8hd_diode_2
XFILLER_54_141 vgnd vpwr scs8hd_decap_4
XFILLER_24_32 vgnd vpwr scs8hd_decap_12
XFILLER_53_3 vgnd vpwr scs8hd_decap_12
XFILLER_49_62 vgnd vpwr scs8hd_decap_12
XFILLER_49_51 vgnd vpwr scs8hd_decap_8
XANTENNA_logical_tile_io_mode_io__5.logical_tile_io_mode_physical__iopad_0.GPIO_LATCH_mem.LATCH_0_.latch_D
+ data_in vgnd vpwr scs8hd_diode_2
XFILLER_10_56 vgnd vpwr scs8hd_decap_12
XFILLER_51_74 vgnd vpwr scs8hd_decap_12
XFILLER_35_86 vgnd vpwr scs8hd_decap_12
XFILLER_19_87 vgnd vpwr scs8hd_decap_12
XPHY_128 vgnd vpwr scs8hd_decap_3
XPHY_117 vgnd vpwr scs8hd_decap_3
XPHY_106 vgnd vpwr scs8hd_decap_3
XPHY_139 vgnd vpwr scs8hd_tapvpwrvgnd_1
XANTENNA_logical_tile_io_mode_io__6.logical_tile_io_mode_physical__iopad_0.GPIO_LATCH_mem.LATCH_0_.latch_D
+ data_in vgnd vpwr scs8hd_diode_2
XPHY_8 vgnd vpwr scs8hd_decap_3
XFILLER_16_3 vgnd vpwr scs8hd_decap_12
XFILLER_12_125 vgnd vpwr scs8hd_decap_12
XFILLER_16_44 vgnd vpwr scs8hd_decap_12
XFILLER_57_62 vgnd vpwr scs8hd_decap_12
XFILLER_57_51 vgnd vpwr scs8hd_decap_8
XFILLER_32_32 vgnd vpwr scs8hd_decap_12
XFILLER_8_129 vgnd vpwr scs8hd_decap_12
XFILLER_43_86 vgnd vpwr scs8hd_decap_12
XANTENNA_logical_tile_io_mode_io__7.logical_tile_io_mode_physical__iopad_0.GPIO_LATCH_mem.LATCH_0_.latch_D
+ data_in vgnd vpwr scs8hd_diode_2
XFILLER_4_121 vgnd vpwr scs8hd_decap_12
XFILLER_58_117 vgnd vpwr scs8hd_decap_12
XFILLER_60_145 vgnd vpwr scs8hd_fill_1
XFILLER_49_74 vgnd vpwr scs8hd_decap_12
XFILLER_40_32 vgnd vpwr scs8hd_decap_12
XFILLER_24_88 vgnd vpwr scs8hd_fill_1
XFILLER_24_44 vgnd vpwr scs8hd_decap_12
XFILLER_1_59 vpwr vgnd scs8hd_fill_2
XFILLER_1_15 vgnd vpwr scs8hd_decap_12
XFILLER_46_3 vgnd vpwr scs8hd_decap_12
XFILLER_28_109 vgnd vpwr scs8hd_decap_4
XFILLER_51_86 vgnd vpwr scs8hd_decap_12
XFILLER_42_145 vgnd vpwr scs8hd_fill_1
XFILLER_35_98 vgnd vpwr scs8hd_decap_12
XFILLER_19_99 vgnd vpwr scs8hd_decap_12
XFILLER_10_68 vgnd vpwr scs8hd_decap_12
XPHY_129 vgnd vpwr scs8hd_decap_3
XPHY_118 vgnd vpwr scs8hd_decap_3
XPHY_107 vgnd vpwr scs8hd_decap_3
XANTENNA__10__A _10_/A vgnd vpwr scs8hd_diode_2
XFILLER_2_80 vgnd vpwr scs8hd_decap_6
XPHY_9 vgnd vpwr scs8hd_decap_3
XFILLER_15_123 vgnd vpwr scs8hd_decap_12
XFILLER_57_74 vgnd vpwr scs8hd_decap_12
XFILLER_32_44 vgnd vpwr scs8hd_decap_12
XANTENNA__05__A _07_/A vgnd vpwr scs8hd_diode_2
XFILLER_12_137 vgnd vpwr scs8hd_decap_8
XFILLER_16_56 vgnd vpwr scs8hd_decap_12
XFILLER_43_98 vgnd vpwr scs8hd_decap_12
XFILLER_4_15 vgnd vpwr scs8hd_decap_12
XFILLER_4_133 vgnd vpwr scs8hd_decap_12
XFILLER_58_129 vgnd vpwr scs8hd_decap_12
XFILLER_38_32 vgnd vpwr scs8hd_decap_12
XFILLER_63_143 vgnd vpwr scs8hd_decap_3
XFILLER_63_110 vgnd vpwr scs8hd_decap_12
XFILLER_5_80 vpwr vgnd scs8hd_fill_2
XFILLER_49_86 vgnd vpwr scs8hd_decap_12
XFILLER_45_143 vgnd vpwr scs8hd_decap_3
XFILLER_45_110 vgnd vpwr scs8hd_decap_12
XFILLER_40_44 vgnd vpwr scs8hd_decap_12
XFILLER_24_56 vgnd vpwr scs8hd_decap_12
XFILLER_1_27 vgnd vpwr scs8hd_decap_12
XFILLER_6_3 vgnd vpwr scs8hd_decap_12
XANTENNA__13__A address[1] vgnd vpwr scs8hd_diode_2
XFILLER_39_3 vgnd vpwr scs8hd_decap_12
XFILLER_36_121 vgnd vpwr scs8hd_decap_12
XFILLER_27_143 vgnd vpwr scs8hd_decap_3
XANTENNA__08__A address[2] vgnd vpwr scs8hd_diode_2
XFILLER_51_98 vgnd vpwr scs8hd_decap_12
XFILLER_18_110 vgnd vpwr scs8hd_decap_12
XPHY_119 vgnd vpwr scs8hd_decap_3
XPHY_108 vgnd vpwr scs8hd_decap_3
XFILLER_24_102 vgnd vpwr scs8hd_decap_12
XFILLER_46_32 vgnd vpwr scs8hd_decap_12
XFILLER_30_105 vgnd vpwr scs8hd_decap_12
XANTENNA__10__B enable vgnd vpwr scs8hd_diode_2
XFILLER_7_15 vgnd vpwr scs8hd_decap_12
XFILLER_7_59 vpwr vgnd scs8hd_fill_2
XFILLER_15_135 vgnd vpwr scs8hd_decap_8
XFILLER_57_86 vgnd vpwr scs8hd_decap_12
XFILLER_32_56 vgnd vpwr scs8hd_decap_12
XANTENNA__05__B address[2] vgnd vpwr scs8hd_diode_2
XFILLER_12_105 vgnd vpwr scs8hd_decap_12
XANTENNA__21__A gfpga_pad_GPIO_PAD[2] vgnd vpwr scs8hd_diode_2
XFILLER_16_68 vgnd vpwr scs8hd_decap_12
XFILLER_21_3 vgnd vpwr scs8hd_decap_12
XANTENNA__16__A gfpga_pad_GPIO_PAD[5] vgnd vpwr scs8hd_diode_2
XFILLER_8_80 vgnd vpwr scs8hd_decap_12
XFILLER_4_27 vgnd vpwr scs8hd_decap_4
XFILLER_4_145 vgnd vpwr scs8hd_fill_1
XFILLER_54_32 vgnd vpwr scs8hd_decap_12
XFILLER_38_44 vgnd vpwr scs8hd_decap_12
XFILLER_1_115 vgnd vpwr scs8hd_decap_6
XFILLER_48_141 vgnd vpwr scs8hd_decap_4
XFILLER_49_98 vgnd vpwr scs8hd_decap_12
XFILLER_40_56 vgnd vpwr scs8hd_decap_12