* NGSPICE file created from grid_io_bottom.ext - technology: EFS8A

* Black-box entry subcircuit for scs8hd_decap_12 abstract view
.subckt scs8hd_decap_12 vgnd vpwr
.ends

* Black-box entry subcircuit for scs8hd_decap_3 abstract view
.subckt scs8hd_decap_3 vgnd vpwr
.ends

* Black-box entry subcircuit for scs8hd_decap_6 abstract view
.subckt scs8hd_decap_6 vgnd vpwr
.ends

* Black-box entry subcircuit for scs8hd_fill_2 abstract view
.subckt scs8hd_fill_2 vpwr vgnd
.ends

* Black-box entry subcircuit for scs8hd_tapvpwrvgnd_1 abstract view
.subckt scs8hd_tapvpwrvgnd_1 vgnd vpwr
.ends

* Black-box entry subcircuit for scs8hd_decap_4 abstract view
.subckt scs8hd_decap_4 vgnd vpwr
.ends

* Black-box entry subcircuit for scs8hd_diode_2 abstract view
.subckt scs8hd_diode_2 DIODE vgnd vpwr
.ends

* Black-box entry subcircuit for scs8hd_fill_1 abstract view
.subckt scs8hd_fill_1 vgnd vpwr
.ends

* Black-box entry subcircuit for scs8hd_decap_8 abstract view
.subckt scs8hd_decap_8 vgnd vpwr
.ends

* Black-box entry subcircuit for scs8hd_ebufn_1 abstract view
.subckt scs8hd_ebufn_1 A TEB Z vgnd vpwr
.ends

* Black-box entry subcircuit for scs8hd_lpflow_inputisolatch_1 abstract view
.subckt scs8hd_lpflow_inputisolatch_1 D Q SLEEPB vgnd vpwr
.ends

* Black-box entry subcircuit for scs8hd_and4_4 abstract view
.subckt scs8hd_and4_4 A B C D X vgnd vpwr
.ends

* Black-box entry subcircuit for scs8hd_inv_8 abstract view
.subckt scs8hd_inv_8 A Y vgnd vpwr
.ends

* Black-box entry subcircuit for scs8hd_buf_2 abstract view
.subckt scs8hd_buf_2 A X vgnd vpwr
.ends

* Black-box entry subcircuit for scs8hd_buf_1 abstract view
.subckt scs8hd_buf_1 A X vgnd vpwr
.ends

* Black-box entry subcircuit for scs8hd_nor4_4 abstract view
.subckt scs8hd_nor4_4 A B C D Y vgnd vpwr
.ends

.subckt grid_io_bottom address[0] address[1] address[2] address[3] data_in enable
+ gfpga_pad_GPIO_PAD[0] gfpga_pad_GPIO_PAD[1] gfpga_pad_GPIO_PAD[2] gfpga_pad_GPIO_PAD[3]
+ gfpga_pad_GPIO_PAD[4] gfpga_pad_GPIO_PAD[5] gfpga_pad_GPIO_PAD[6] gfpga_pad_GPIO_PAD[7]
+ top_width_0_height_0__pin_0_ top_width_0_height_0__pin_10_ top_width_0_height_0__pin_11_
+ top_width_0_height_0__pin_12_ top_width_0_height_0__pin_13_ top_width_0_height_0__pin_14_
+ top_width_0_height_0__pin_15_ top_width_0_height_0__pin_1_ top_width_0_height_0__pin_2_
+ top_width_0_height_0__pin_3_ top_width_0_height_0__pin_4_ top_width_0_height_0__pin_5_
+ top_width_0_height_0__pin_6_ top_width_0_height_0__pin_7_ top_width_0_height_0__pin_8_
+ top_width_0_height_0__pin_9_ vpwr vgnd
XFILLER_11_818 vgnd vpwr scs8hd_decap_12
XFILLER_11_1086 vgnd vpwr scs8hd_decap_12
XFILLER_6_800 vgnd vpwr scs8hd_decap_12
XFILLER_9_159 vgnd vpwr scs8hd_decap_12
XFILLER_10_873 vgnd vpwr scs8hd_decap_12
XFILLER_5_354 vgnd vpwr scs8hd_decap_12
XFILLER_7_1143 vgnd vpwr scs8hd_decap_3
XFILLER_6_129 vgnd vpwr scs8hd_decap_12
XFILLER_11_659 vgnd vpwr scs8hd_decap_12
XFILLER_12_32 vgnd vpwr scs8hd_decap_12
XFILLER_2_324 vgnd vpwr scs8hd_decap_12
XFILLER_14_442 vgnd vpwr scs8hd_decap_12
XFILLER_5_184 vgnd vpwr scs8hd_decap_12
XFILLER_16_707 vgnd vpwr scs8hd_decap_6
XFILLER_3_611 vgnd vpwr scs8hd_decap_12
XFILLER_11_489 vgnd vpwr scs8hd_decap_12
XFILLER_2_154 vgnd vpwr scs8hd_decap_12
XFILLER_6_471 vgnd vpwr scs8hd_decap_12
XFILLER_9_1013 vgnd vpwr scs8hd_decap_12
XFILLER_0_614 vgnd vpwr scs8hd_decap_6
XFILLER_16_559 vgnd vpwr scs8hd_decap_12
XFILLER_12_776 vgnd vpwr scs8hd_decap_12
XFILLER_7_213 vpwr vgnd scs8hd_fill_2
XFILLER_8_703 vgnd vpwr scs8hd_decap_12
XFILLER_11_220 vgnd vpwr scs8hd_decap_3
XFILLER_3_452 vgnd vpwr scs8hd_decap_12
XFILLER_7_257 vgnd vpwr scs8hd_decap_12
XFILLER_4_227 vgnd vpwr scs8hd_decap_12
XFILLER_1_989 vgnd vpwr scs8hd_decap_12
XFILLER_0_466 vgnd vpwr scs8hd_decap_12
XFILLER_16_323 vgnd vpwr scs8hd_decap_12
XPHY_373 vgnd vpwr scs8hd_tapvpwrvgnd_1
XPHY_362 vgnd vpwr scs8hd_tapvpwrvgnd_1
XPHY_351 vgnd vpwr scs8hd_tapvpwrvgnd_1
XPHY_340 vgnd vpwr scs8hd_tapvpwrvgnd_1
XFILLER_8_544 vgnd vpwr scs8hd_decap_12
XFILLER_3_293 vgnd vpwr scs8hd_decap_12
XFILLER_6_56 vgnd vpwr scs8hd_decap_12
XFILLER_1_208 vgnd vpwr scs8hd_decap_12
XFILLER_14_849 vgnd vpwr scs8hd_decap_4
XFILLER_15_98 vgnd vpwr scs8hd_decap_12
XFILLER_1_720 vgnd vpwr scs8hd_decap_12
XFILLER_0_230 vgnd vpwr scs8hd_decap_12
XFILLER_5_525 vgnd vpwr scs8hd_decap_12
XFILLER_13_871 vgnd vpwr scs8hd_decap_12
XPHY_170 vgnd vpwr scs8hd_tapvpwrvgnd_1
XPHY_181 vgnd vpwr scs8hd_tapvpwrvgnd_1
XPHY_192 vgnd vpwr scs8hd_tapvpwrvgnd_1
XFILLER_8_385 vgnd vpwr scs8hd_decap_12
XFILLER_9_842 vgnd vpwr scs8hd_decap_12
XFILLER_13_123 vgnd vpwr scs8hd_decap_3
XFILLER_6_812 vgnd vpwr scs8hd_decap_12
XFILLER_1_550 vgnd vpwr scs8hd_decap_12
XFILLER_7_1111 vgnd vpwr scs8hd_decap_12
XFILLER_9_672 vgnd vpwr scs8hd_decap_12
XFILLER_12_44 vgnd vpwr scs8hd_decap_12
XFILLER_15_977 vgnd vpwr scs8hd_decap_12
XFILLER_14_454 vgnd vpwr scs8hd_decap_4
XFILLER_14_410 vgnd vpwr scs8hd_decap_4
XFILLER_5_196 vgnd vpwr scs8hd_decap_12
XFILLER_6_642 vgnd vpwr scs8hd_decap_12
XFILLER_1_391 vgnd vpwr scs8hd_decap_12
XFILLER_0_807 vgnd vpwr scs8hd_decap_12
XFILLER_12_947 vgnd vpwr scs8hd_decap_12
XFILLER_11_424 vgnd vpwr scs8hd_decap_3
XFILLER_3_623 vgnd vpwr scs8hd_decap_12
XFILLER_7_428 vgnd vpwr scs8hd_decap_12
XFILLER_2_166 vgnd vpwr scs8hd_decap_12
XFILLER_7_940 vgnd vpwr scs8hd_decap_12
XFILLER_6_483 vgnd vpwr scs8hd_decap_12
XFILLER_9_1025 vgnd vpwr scs8hd_decap_12
XANTENNA_logical_tile_io_mode_io__4.logical_tile_io_mode_physical__iopad_0.GPIO_LATCH_mem.LATCH_0_.latch_SLEEPB
+ _10_/X vgnd vpwr scs8hd_diode_2
XFILLER_12_788 vgnd vpwr scs8hd_decap_12
XFILLER_8_715 vgnd vpwr scs8hd_decap_12
XFILLER_11_243 vgnd vpwr scs8hd_fill_1
XFILLER_3_464 vgnd vpwr scs8hd_decap_12
XFILLER_4_910 vgnd vpwr scs8hd_decap_12
XFILLER_7_269 vgnd vpwr scs8hd_decap_12
XFILLER_7_781 vgnd vpwr scs8hd_decap_12
XFILLER_13_519 vgnd vpwr scs8hd_fill_1
XFILLER_4_239 vgnd vpwr scs8hd_decap_12
XFILLER_0_478 vgnd vpwr scs8hd_decap_12
XFILLER_16_335 vgnd vpwr scs8hd_decap_6
XPHY_352 vgnd vpwr scs8hd_tapvpwrvgnd_1
XPHY_341 vgnd vpwr scs8hd_tapvpwrvgnd_1
XPHY_330 vgnd vpwr scs8hd_tapvpwrvgnd_1
XPHY_374 vgnd vpwr scs8hd_tapvpwrvgnd_1
XPHY_363 vgnd vpwr scs8hd_tapvpwrvgnd_1
XFILLER_8_556 vgnd vpwr scs8hd_decap_12
XFILLER_4_751 vgnd vpwr scs8hd_decap_12
XFILLER_6_68 vgnd vpwr scs8hd_decap_12
XFILLER_5_537 vgnd vpwr scs8hd_decap_12
XFILLER_0_242 vgnd vpwr scs8hd_decap_6
XFILLER_5_1050 vgnd vpwr scs8hd_decap_12
XFILLER_16_187 vgnd vpwr scs8hd_decap_12
XFILLER_13_883 vgnd vpwr scs8hd_decap_12
XFILLER_12_360 vgnd vpwr scs8hd_decap_12
XPHY_160 vgnd vpwr scs8hd_tapvpwrvgnd_1
XPHY_182 vgnd vpwr scs8hd_tapvpwrvgnd_1
XPHY_171 vgnd vpwr scs8hd_tapvpwrvgnd_1
XPHY_193 vgnd vpwr scs8hd_tapvpwrvgnd_1
XFILLER_4_581 vgnd vpwr scs8hd_decap_12
XFILLER_2_507 vgnd vpwr scs8hd_decap_12
XFILLER_11_1099 vgnd vpwr scs8hd_decap_12
XFILLER_5_367 vgnd vpwr scs8hd_decap_12
XFILLER_10_886 vgnd vpwr scs8hd_decap_12
XFILLER_1_562 vgnd vpwr scs8hd_decap_12
XFILLER_7_1123 vgnd vpwr scs8hd_decap_12
XFILLER_12_190 vgnd vpwr scs8hd_decap_8
XFILLER_9_684 vgnd vpwr scs8hd_decap_12
XFILLER_10_105 vgnd vpwr scs8hd_fill_1
XFILLER_12_56 vgnd vpwr scs8hd_decap_12
XFILLER_2_337 vgnd vpwr scs8hd_decap_12
XFILLER_2_1020 vgnd vpwr scs8hd_decap_12
XFILLER_15_989 vgnd vpwr scs8hd_decap_12
XFILLER_6_654 vgnd vpwr scs8hd_decap_12
XFILLER_0_819 vgnd vpwr scs8hd_decap_12
XFILLER_15_208 vgnd vpwr scs8hd_decap_12
XFILLER_12_959 vgnd vpwr scs8hd_decap_12
XFILLER_3_3 vgnd vpwr scs8hd_decap_12
XFILLER_3_635 vgnd vpwr scs8hd_decap_12
XFILLER_2_178 vgnd vpwr scs8hd_decap_12
XFILLER_0_15 vgnd vpwr scs8hd_decap_12
XFILLER_15_720 vgnd vpwr scs8hd_decap_12
XFILLER_7_952 vgnd vpwr scs8hd_decap_12
XFILLER_2_690 vgnd vpwr scs8hd_decap_12
XFILLER_6_495 vgnd vpwr scs8hd_decap_12
XFILLER_16_528 vgnd vpwr scs8hd_decap_12
XFILLER_8_727 vgnd vpwr scs8hd_decap_12
XFILLER_11_233 vpwr vgnd scs8hd_fill_2
XFILLER_3_476 vgnd vpwr scs8hd_decap_12
XFILLER_4_922 vgnd vpwr scs8hd_decap_12
XFILLER_8_1081 vgnd vpwr scs8hd_decap_12
XFILLER_15_550 vgnd vpwr scs8hd_decap_12
XFILLER_14_1020 vgnd vpwr scs8hd_decap_12
XFILLER_5_708 vgnd vpwr scs8hd_decap_12
XFILLER_1_903 vgnd vpwr scs8hd_decap_12
XFILLER_0_435 vgnd vpwr scs8hd_decap_12
XPHY_375 vgnd vpwr scs8hd_tapvpwrvgnd_1
XPHY_364 vgnd vpwr scs8hd_tapvpwrvgnd_1
XPHY_353 vgnd vpwr scs8hd_tapvpwrvgnd_1
XPHY_342 vgnd vpwr scs8hd_tapvpwrvgnd_1
XPHY_331 vgnd vpwr scs8hd_tapvpwrvgnd_1
XPHY_320 vgnd vpwr scs8hd_tapvpwrvgnd_1
XFILLER_12_520 vgnd vpwr scs8hd_decap_12
XFILLER_8_568 vgnd vpwr scs8hd_decap_12
XFILLER_16_881 vgnd vpwr scs8hd_decap_12
XFILLER_15_391 vgnd vpwr scs8hd_decap_12
XFILLER_13_306 vgnd vpwr scs8hd_decap_12
XANTENNA__04__A address[3] vgnd vpwr scs8hd_diode_2
XFILLER_1_733 vgnd vpwr scs8hd_decap_12
XFILLER_5_1062 vgnd vpwr scs8hd_decap_12
XFILLER_16_199 vgnd vpwr scs8hd_decap_12
XFILLER_13_895 vgnd vpwr scs8hd_decap_12
XFILLER_12_372 vgnd vpwr scs8hd_decap_6
XPHY_150 vgnd vpwr scs8hd_tapvpwrvgnd_1
XPHY_161 vgnd vpwr scs8hd_tapvpwrvgnd_1
XPHY_183 vgnd vpwr scs8hd_tapvpwrvgnd_1
XPHY_172 vgnd vpwr scs8hd_tapvpwrvgnd_1
XPHY_194 vgnd vpwr scs8hd_tapvpwrvgnd_1
XFILLER_9_855 vgnd vpwr scs8hd_decap_12
XFILLER_4_593 vgnd vpwr scs8hd_decap_12
XFILLER_8_398 vgnd vpwr scs8hd_decap_12
XFILLER_11_1001 vgnd vpwr scs8hd_decap_12
XFILLER_13_103 vpwr vgnd scs8hd_fill_2
XFILLER_5_379 vgnd vpwr scs8hd_decap_12
XFILLER_6_825 vgnd vpwr scs8hd_decap_12
XFILLER_10_898 vgnd vpwr scs8hd_decap_12
XFILLER_1_574 vgnd vpwr scs8hd_decap_12
XFILLER_3_15 vgnd vpwr scs8hd_decap_12
XFILLER_3_59 vpwr vgnd scs8hd_fill_2
XFILLER_7_1135 vgnd vpwr scs8hd_decap_8
XFILLER_13_670 vgnd vpwr scs8hd_fill_1
XFILLER_9_696 vgnd vpwr scs8hd_decap_12
XFILLER_5_891 vgnd vpwr scs8hd_decap_12
XFILLER_10_128 vgnd vpwr scs8hd_fill_1
XFILLER_3_806 vgnd vpwr scs8hd_decap_12
XFILLER_12_68 vgnd vpwr scs8hd_decap_12
XFILLER_2_349 vgnd vpwr scs8hd_decap_12
XFILLER_2_1032 vgnd vpwr scs8hd_decap_12
XFILLER_5_110 vgnd vpwr scs8hd_decap_12
XFILLER_2_861 vgnd vpwr scs8hd_decap_12
XFILLER_6_666 vgnd vpwr scs8hd_decap_12
Xlogical_tile_io_mode_io__4.logical_tile_io_mode_physical__iopad_0.GPIO_0_.buffer
+ top_width_0_height_0__pin_8_ logical_tile_io_mode_io__4.logical_tile_io_mode_physical__iopad_0.GPIO_0_.buffer/TEB
+ gfpga_pad_GPIO_PAD[4] vgnd vpwr scs8hd_ebufn_1
XFILLER_4_80 vgnd vpwr scs8hd_decap_12
XFILLER_11_404 vgnd vpwr scs8hd_decap_12
XANTENNA__12__A _10_/A vgnd vpwr scs8hd_diode_2
XFILLER_3_647 vgnd vpwr scs8hd_decap_12
XFILLER_0_27 vgnd vpwr scs8hd_decap_4
XFILLER_4_1105 vgnd vpwr scs8hd_decap_12
XFILLER_7_964 vgnd vpwr scs8hd_decap_12
XFILLER_9_1038 vgnd vpwr scs8hd_decap_12
XANTENNA__07__A _05_/A vgnd vpwr scs8hd_diode_2
XFILLER_4_934 vgnd vpwr scs8hd_decap_12
XFILLER_8_739 vgnd vpwr scs8hd_decap_12
XFILLER_11_245 vgnd vpwr scs8hd_decap_12
XFILLER_8_1093 vgnd vpwr scs8hd_decap_12
XFILLER_15_562 vgnd vpwr scs8hd_decap_12
XFILLER_7_794 vgnd vpwr scs8hd_decap_12
XFILLER_14_1032 vgnd vpwr scs8hd_decap_12
XFILLER_0_447 vgnd vpwr scs8hd_decap_12
XFILLER_16_304 vgnd vpwr scs8hd_decap_6
XPHY_376 vgnd vpwr scs8hd_tapvpwrvgnd_1
XPHY_365 vgnd vpwr scs8hd_tapvpwrvgnd_1
XPHY_354 vgnd vpwr scs8hd_tapvpwrvgnd_1
XPHY_343 vgnd vpwr scs8hd_tapvpwrvgnd_1
XPHY_332 vgnd vpwr scs8hd_tapvpwrvgnd_1
XPHY_321 vgnd vpwr scs8hd_tapvpwrvgnd_1
XPHY_310 vgnd vpwr scs8hd_tapvpwrvgnd_1
XFILLER_12_532 vgnd vpwr scs8hd_decap_12
XFILLER_4_764 vgnd vpwr scs8hd_decap_12
XFILLER_6_15 vgnd vpwr scs8hd_decap_12
XFILLER_6_1008 vgnd vpwr scs8hd_decap_12
XFILLER_16_893 vgnd vpwr scs8hd_decap_6
XFILLER_13_318 vgnd vpwr scs8hd_decap_12
XFILLER_0_1141 vgnd vpwr scs8hd_decap_4
XANTENNA__20__A gfpga_pad_GPIO_PAD[1] vgnd vpwr scs8hd_diode_2
XFILLER_1_745 vgnd vpwr scs8hd_decap_12
XFILLER_0_211 vgnd vpwr scs8hd_decap_6
XFILLER_16_156 vgnd vpwr scs8hd_decap_12
XFILLER_5_1074 vgnd vpwr scs8hd_decap_12
XPHY_140 vgnd vpwr scs8hd_tapvpwrvgnd_1
XPHY_151 vgnd vpwr scs8hd_tapvpwrvgnd_1
XPHY_162 vgnd vpwr scs8hd_tapvpwrvgnd_1
XPHY_184 vgnd vpwr scs8hd_tapvpwrvgnd_1
XPHY_173 vgnd vpwr scs8hd_tapvpwrvgnd_1
XPHY_195 vgnd vpwr scs8hd_tapvpwrvgnd_1
XFILLER_8_300 vgnd vpwr scs8hd_decap_12
XFILLER_9_867 vgnd vpwr scs8hd_decap_12
XFILLER_11_3 vpwr vgnd scs8hd_fill_2
XFILLER_11_1013 vgnd vpwr scs8hd_decap_12
XFILLER_14_605 vgnd vpwr scs8hd_decap_12
XFILLER_6_837 vgnd vpwr scs8hd_decap_12
XFILLER_10_800 vgnd vpwr scs8hd_decap_12
XANTENNA__15__A address[1] vgnd vpwr scs8hd_diode_2
XFILLER_3_27 vgnd vpwr scs8hd_decap_12
XFILLER_1_586 vgnd vpwr scs8hd_decap_12
XFILLER_8_141 vgnd vpwr scs8hd_decap_12
XFILLER_8_196 vgnd vpwr scs8hd_decap_12
XFILLER_12_14 vgnd vpwr scs8hd_decap_12
XFILLER_3_818 vgnd vpwr scs8hd_decap_12
XFILLER_15_903 vgnd vpwr scs8hd_decap_12
XFILLER_2_1044 vgnd vpwr scs8hd_decap_12
XFILLER_6_678 vgnd vpwr scs8hd_decap_12
XFILLER_2_873 vgnd vpwr scs8hd_decap_12
XFILLER_14_991 vgnd vpwr scs8hd_decap_12
XFILLER_12_1130 vgnd vpwr scs8hd_decap_12
Xlogical_tile_io_mode_io__3.logical_tile_io_mode_physical__iopad_0.GPIO_LATCH_mem.LATCH_0_.latch
+ data_in logical_tile_io_mode_io__3.logical_tile_io_mode_physical__iopad_0.GPIO_0_.buffer/TEB
+ _12_/Y vgnd vpwr scs8hd_lpflow_inputisolatch_1
XANTENNA__12__B _12_/B vgnd vpwr scs8hd_diode_2
XFILLER_11_416 vgnd vpwr scs8hd_decap_8
XFILLER_3_659 vgnd vpwr scs8hd_decap_12
XFILLER_4_1117 vgnd vpwr scs8hd_decap_12
XFILLER_15_733 vgnd vpwr scs8hd_decap_12
XFILLER_9_15 vgnd vpwr scs8hd_decap_12
XFILLER_9_59 vpwr vgnd scs8hd_fill_2
XFILLER_10_471 vgnd vpwr scs8hd_decap_12
XFILLER_12_703 vgnd vpwr scs8hd_decap_12
XANTENNA__07__B address[2] vgnd vpwr scs8hd_diode_2
XFILLER_11_257 vgnd vpwr scs8hd_decap_12
XANTENNA__23__A gfpga_pad_GPIO_PAD[4] vgnd vpwr scs8hd_diode_2
XFILLER_7_217 vgnd vpwr scs8hd_decap_12
XFILLER_3_489 vgnd vpwr scs8hd_decap_12
XFILLER_15_574 vgnd vpwr scs8hd_decap_12
XFILLER_14_1044 vgnd vpwr scs8hd_decap_12
XFILLER_1_916 vgnd vpwr scs8hd_decap_12
XFILLER_0_459 vgnd vpwr scs8hd_decap_6
XFILLER_0_404 vgnd vpwr scs8hd_decap_12
XANTENNA__18__A gfpga_pad_GPIO_PAD[7] vgnd vpwr scs8hd_diode_2
XPHY_300 vgnd vpwr scs8hd_tapvpwrvgnd_1
XPHY_377 vgnd vpwr scs8hd_tapvpwrvgnd_1
XPHY_366 vgnd vpwr scs8hd_tapvpwrvgnd_1
XPHY_355 vgnd vpwr scs8hd_tapvpwrvgnd_1
XPHY_344 vgnd vpwr scs8hd_tapvpwrvgnd_1
XPHY_333 vgnd vpwr scs8hd_tapvpwrvgnd_1
XPHY_322 vgnd vpwr scs8hd_tapvpwrvgnd_1
XPHY_311 vgnd vpwr scs8hd_tapvpwrvgnd_1
XFILLER_12_544 vgnd vpwr scs8hd_decap_12
XFILLER_3_220 vgnd vpwr scs8hd_decap_12
XFILLER_4_776 vgnd vpwr scs8hd_decap_12
XFILLER_6_27 vgnd vpwr scs8hd_decap_4
XFILLER_10_80 vgnd vpwr scs8hd_decap_12
XFILLER_13_7 vpwr vgnd scs8hd_fill_2
XFILLER_0_993 vgnd vpwr scs8hd_decap_12
XFILLER_16_850 vgnd vpwr scs8hd_decap_12
XFILLER_16_1117 vgnd vpwr scs8hd_decap_12
XFILLER_1_757 vgnd vpwr scs8hd_decap_12
XFILLER_16_168 vgnd vpwr scs8hd_decap_12
XPHY_130 vgnd vpwr scs8hd_tapvpwrvgnd_1
XPHY_141 vgnd vpwr scs8hd_tapvpwrvgnd_1
XPHY_152 vgnd vpwr scs8hd_tapvpwrvgnd_1
XFILLER_5_1086 vgnd vpwr scs8hd_decap_12
XPHY_163 vgnd vpwr scs8hd_tapvpwrvgnd_1
XPHY_185 vgnd vpwr scs8hd_tapvpwrvgnd_1
XPHY_174 vgnd vpwr scs8hd_tapvpwrvgnd_1
XPHY_196 vgnd vpwr scs8hd_tapvpwrvgnd_1
XFILLER_8_312 vgnd vpwr scs8hd_decap_12
XFILLER_9_879 vgnd vpwr scs8hd_decap_12
XFILLER_11_1025 vgnd vpwr scs8hd_decap_12
XFILLER_14_617 vgnd vpwr scs8hd_decap_12
XFILLER_6_849 vgnd vpwr scs8hd_decap_12
XFILLER_10_812 vgnd vpwr scs8hd_decap_12
XANTENNA__15__B _12_/B vgnd vpwr scs8hd_diode_2
XFILLER_3_39 vgnd vpwr scs8hd_decap_12
XFILLER_1_598 vgnd vpwr scs8hd_decap_12
XFILLER_13_672 vgnd vpwr scs8hd_decap_12
XFILLER_8_186 vgnd vpwr scs8hd_fill_1
XFILLER_10_108 vgnd vpwr scs8hd_decap_12
XFILLER_12_26 vgnd vpwr scs8hd_decap_4
XFILLER_2_1056 vgnd vpwr scs8hd_decap_12
XFILLER_5_123 vgnd vpwr scs8hd_decap_12
XFILLER_10_642 vgnd vpwr scs8hd_decap_12
XFILLER_9_440 vgnd vpwr scs8hd_decap_12
XFILLER_12_1142 vgnd vpwr scs8hd_decap_4
XFILLER_4_93 vgnd vpwr scs8hd_decap_12
XFILLER_11_428 vgnd vpwr scs8hd_decap_12
XANTENNA__12__C _05_/A vgnd vpwr scs8hd_diode_2
XFILLER_15_745 vgnd vpwr scs8hd_decap_12
XFILLER_14_233 vgnd vpwr scs8hd_decap_12
XFILLER_6_410 vgnd vpwr scs8hd_decap_12
XFILLER_9_27 vgnd vpwr scs8hd_decap_12
XFILLER_11_940 vgnd vpwr scs8hd_decap_12
XFILLER_7_977 vgnd vpwr scs8hd_decap_12
XFILLER_10_483 vgnd vpwr scs8hd_decap_12
XFILLER_9_281 vgnd vpwr scs8hd_decap_12
XFILLER_16_509 vgnd vpwr scs8hd_decap_12
XANTENNA__07__C _10_/A vgnd vpwr scs8hd_diode_2
XFILLER_12_715 vgnd vpwr scs8hd_decap_12
XFILLER_7_229 vgnd vpwr scs8hd_decap_12
XFILLER_11_225 vpwr vgnd scs8hd_fill_2
XFILLER_11_269 vgnd vpwr scs8hd_decap_12
XFILLER_1_3 vgnd vpwr scs8hd_decap_12
XFILLER_4_947 vgnd vpwr scs8hd_decap_12
XFILLER_15_586 vgnd vpwr scs8hd_decap_12
XFILLER_6_251 vgnd vpwr scs8hd_decap_12
XFILLER_11_781 vgnd vpwr scs8hd_decap_12
XFILLER_14_1056 vgnd vpwr scs8hd_decap_12
XFILLER_1_928 vgnd vpwr scs8hd_decap_12
XFILLER_0_416 vgnd vpwr scs8hd_decap_12
XPHY_334 vgnd vpwr scs8hd_tapvpwrvgnd_1
XPHY_323 vgnd vpwr scs8hd_tapvpwrvgnd_1
XPHY_301 vgnd vpwr scs8hd_tapvpwrvgnd_1
XPHY_312 vgnd vpwr scs8hd_tapvpwrvgnd_1
XPHY_378 vgnd vpwr scs8hd_tapvpwrvgnd_1
XPHY_367 vgnd vpwr scs8hd_tapvpwrvgnd_1
XPHY_356 vgnd vpwr scs8hd_tapvpwrvgnd_1
XPHY_345 vgnd vpwr scs8hd_tapvpwrvgnd_1
XFILLER_12_556 vgnd vpwr scs8hd_decap_12
XFILLER_3_232 vgnd vpwr scs8hd_decap_12
XFILLER_4_788 vgnd vpwr scs8hd_decap_12
XFILLER_16_862 vgnd vpwr scs8hd_decap_6
XFILLER_15_15 vgnd vpwr scs8hd_decap_12
XFILLER_0_1110 vgnd vpwr scs8hd_decap_6
XFILLER_16_1129 vgnd vpwr scs8hd_decap_12
XFILLER_15_59 vpwr vgnd scs8hd_fill_2
XFILLER_1_769 vgnd vpwr scs8hd_decap_12
XFILLER_16_125 vgnd vpwr scs8hd_decap_12
XFILLER_13_810 vgnd vpwr scs8hd_decap_12
XPHY_120 vgnd vpwr scs8hd_tapvpwrvgnd_1
XPHY_131 vgnd vpwr scs8hd_tapvpwrvgnd_1
XPHY_142 vgnd vpwr scs8hd_tapvpwrvgnd_1
XPHY_153 vgnd vpwr scs8hd_tapvpwrvgnd_1
XPHY_164 vgnd vpwr scs8hd_tapvpwrvgnd_1
XPHY_175 vgnd vpwr scs8hd_tapvpwrvgnd_1
XPHY_186 vgnd vpwr scs8hd_tapvpwrvgnd_1
XPHY_197 vgnd vpwr scs8hd_tapvpwrvgnd_1
XFILLER_8_324 vgnd vpwr scs8hd_decap_12
XPHY_0 vgnd vpwr scs8hd_decap_3
XFILLER_14_629 vgnd vpwr scs8hd_decap_12
XFILLER_13_128 vgnd vpwr scs8hd_decap_12
XANTENNA__15__C _05_/A vgnd vpwr scs8hd_diode_2
XFILLER_13_684 vgnd vpwr scs8hd_decap_12
XFILLER_13_662 vgnd vpwr scs8hd_decap_8
XFILLER_8_154 vgnd vpwr scs8hd_decap_12
XFILLER_9_611 vgnd vpwr scs8hd_decap_12
XFILLER_10_1081 vgnd vpwr scs8hd_decap_12
XFILLER_15_916 vgnd vpwr scs8hd_decap_12
XFILLER_14_459 vgnd vpwr scs8hd_decap_12
XFILLER_10_654 vgnd vpwr scs8hd_decap_12
XFILLER_5_135 vgnd vpwr scs8hd_decap_12
XFILLER_2_886 vgnd vpwr scs8hd_decap_12
XFILLER_1_330 vgnd vpwr scs8hd_decap_12
XFILLER_9_452 vgnd vpwr scs8hd_decap_12
XFILLER_4_190 vgnd vpwr scs8hd_decap_12
XFILLER_2_105 vgnd vpwr scs8hd_decap_12
XANTENNA__12__D _09_/D vgnd vpwr scs8hd_diode_2
XFILLER_15_757 vgnd vpwr scs8hd_decap_12
XFILLER_14_245 vgnd vpwr scs8hd_decap_12
XFILLER_14_223 vpwr vgnd scs8hd_fill_2
XFILLER_6_422 vgnd vpwr scs8hd_decap_12
XFILLER_9_39 vgnd vpwr scs8hd_decap_12
XFILLER_10_495 vgnd vpwr scs8hd_decap_12
XFILLER_11_952 vgnd vpwr scs8hd_decap_12
XFILLER_7_989 vgnd vpwr scs8hd_decap_12
XFILLER_1_171 vgnd vpwr scs8hd_decap_12
XFILLER_9_293 vgnd vpwr scs8hd_decap_12
XANTENNA__07__D enable vgnd vpwr scs8hd_diode_2
XFILLER_12_727 vgnd vpwr scs8hd_decap_12
XFILLER_11_237 vgnd vpwr scs8hd_decap_6
XFILLER_3_403 vgnd vpwr scs8hd_decap_12
XFILLER_4_959 vgnd vpwr scs8hd_decap_12
XFILLER_15_598 vgnd vpwr scs8hd_decap_12
XFILLER_6_263 vgnd vpwr scs8hd_decap_12
XFILLER_7_720 vgnd vpwr scs8hd_decap_12
XFILLER_10_270 vgnd vpwr scs8hd_decap_4
XANTENNA_logical_tile_io_mode_io__7.logical_tile_io_mode_physical__iopad_0.GPIO_0_.buffer_TEB
+ logical_tile_io_mode_io__7.logical_tile_io_mode_physical__iopad_0.GPIO_0_.buffer/TEB
+ vgnd vpwr scs8hd_diode_2
XFILLER_1_51 vgnd vpwr scs8hd_decap_8
XFILLER_1_62 vgnd vpwr scs8hd_decap_12
XFILLER_0_428 vgnd vpwr scs8hd_decap_6
XPHY_368 vgnd vpwr scs8hd_tapvpwrvgnd_1
XPHY_357 vgnd vpwr scs8hd_tapvpwrvgnd_1
XPHY_346 vgnd vpwr scs8hd_tapvpwrvgnd_1
XPHY_335 vgnd vpwr scs8hd_tapvpwrvgnd_1
XPHY_324 vgnd vpwr scs8hd_tapvpwrvgnd_1
XPHY_302 vgnd vpwr scs8hd_tapvpwrvgnd_1
XPHY_313 vgnd vpwr scs8hd_tapvpwrvgnd_1
XPHY_379 vgnd vpwr scs8hd_tapvpwrvgnd_1
XFILLER_12_568 vgnd vpwr scs8hd_decap_12
XFILLER_0_962 vgnd vpwr scs8hd_decap_12
XFILLER_10_93 vpwr vgnd scs8hd_fill_2
XFILLER_7_550 vgnd vpwr scs8hd_decap_12
XFILLER_15_27 vgnd vpwr scs8hd_decap_12
X_09_ address[1] enable address[3] _09_/D _09_/X vgnd vpwr scs8hd_and4_4
XFILLER_16_137 vgnd vpwr scs8hd_decap_12
XFILLER_5_1099 vgnd vpwr scs8hd_decap_12
XFILLER_13_855 vpwr vgnd scs8hd_fill_2
XFILLER_13_822 vgnd vpwr scs8hd_decap_12
XPHY_110 vgnd vpwr scs8hd_tapvpwrvgnd_1
XPHY_121 vgnd vpwr scs8hd_tapvpwrvgnd_1
XPHY_132 vgnd vpwr scs8hd_tapvpwrvgnd_1
XPHY_143 vgnd vpwr scs8hd_tapvpwrvgnd_1
XPHY_154 vgnd vpwr scs8hd_tapvpwrvgnd_1
XPHY_165 vgnd vpwr scs8hd_tapvpwrvgnd_1
XPHY_187 vgnd vpwr scs8hd_tapvpwrvgnd_1
XPHY_176 vgnd vpwr scs8hd_tapvpwrvgnd_1
XPHY_198 vgnd vpwr scs8hd_tapvpwrvgnd_1
XFILLER_4_520 vgnd vpwr scs8hd_decap_12
XPHY_1 vgnd vpwr scs8hd_decap_3
XFILLER_11_1038 vgnd vpwr scs8hd_decap_12
XFILLER_7_391 vgnd vpwr scs8hd_decap_12
XFILLER_13_107 vgnd vpwr scs8hd_decap_12
XFILLER_10_825 vgnd vpwr scs8hd_decap_12
XANTENNA__15__D address[2] vgnd vpwr scs8hd_diode_2
XFILLER_1_501 vgnd vpwr scs8hd_decap_12
XFILLER_5_306 vgnd vpwr scs8hd_decap_12
XFILLER_13_696 vgnd vpwr scs8hd_decap_8
XFILLER_12_151 vpwr vgnd scs8hd_fill_2
XFILLER_8_166 vgnd vpwr scs8hd_decap_12
XFILLER_9_623 vgnd vpwr scs8hd_decap_12
XFILLER_4_361 vgnd vpwr scs8hd_decap_12
XFILLER_10_1093 vgnd vpwr scs8hd_decap_12
XFILLER_16_490 vgnd vpwr scs8hd_decap_6
XFILLER_15_928 vgnd vpwr scs8hd_decap_12
XFILLER_2_1069 vgnd vpwr scs8hd_decap_12
XFILLER_10_666 vgnd vpwr scs8hd_decap_12
XFILLER_1_342 vgnd vpwr scs8hd_decap_12
XFILLER_5_147 vgnd vpwr scs8hd_decap_12
XFILLER_2_898 vgnd vpwr scs8hd_decap_12
XFILLER_9_464 vgnd vpwr scs8hd_decap_12
XFILLER_2_117 vgnd vpwr scs8hd_decap_12
XFILLER_15_769 vgnd vpwr scs8hd_decap_12
XFILLER_14_257 vgnd vpwr scs8hd_decap_12
XFILLER_14_202 vgnd vpwr scs8hd_decap_12
XFILLER_6_434 vgnd vpwr scs8hd_decap_12
XFILLER_11_964 vgnd vpwr scs8hd_decap_12
XFILLER_13_290 vgnd vpwr scs8hd_decap_12
XFILLER_12_739 vgnd vpwr scs8hd_decap_12
XFILLER_3_415 vgnd vpwr scs8hd_decap_12
XFILLER_8_1020 vgnd vpwr scs8hd_decap_12
XFILLER_11_794 vgnd vpwr scs8hd_decap_12
XFILLER_1_74 vgnd vpwr scs8hd_decap_12
XFILLER_14_1069 vgnd vpwr scs8hd_decap_12
XFILLER_14_1003 vgnd vpwr scs8hd_decap_4
XPHY_369 vgnd vpwr scs8hd_tapvpwrvgnd_1
XPHY_358 vgnd vpwr scs8hd_tapvpwrvgnd_1
XPHY_347 vgnd vpwr scs8hd_tapvpwrvgnd_1
XPHY_336 vgnd vpwr scs8hd_tapvpwrvgnd_1
XPHY_325 vgnd vpwr scs8hd_tapvpwrvgnd_1
XPHY_303 vgnd vpwr scs8hd_tapvpwrvgnd_1
XPHY_314 vgnd vpwr scs8hd_tapvpwrvgnd_1
XFILLER_8_507 vgnd vpwr scs8hd_decap_12
XFILLER_3_245 vgnd vpwr scs8hd_decap_12
XFILLER_0_974 vgnd vpwr scs8hd_decap_12
XFILLER_16_831 vgnd vpwr scs8hd_decap_6
XFILLER_15_330 vgnd vpwr scs8hd_decap_12
Xlogical_tile_io_mode_io__5.logical_tile_io_mode_physical__iopad_0.GPIO_0_.buffer
+ top_width_0_height_0__pin_10_ logical_tile_io_mode_io__5.logical_tile_io_mode_physical__iopad_0.GPIO_0_.buffer/TEB
+ gfpga_pad_GPIO_PAD[5] vgnd vpwr scs8hd_ebufn_1
XFILLER_7_562 vgnd vpwr scs8hd_decap_12
X_08_ address[2] _09_/D vgnd vpwr scs8hd_inv_8
XFILLER_15_39 vgnd vpwr scs8hd_decap_12
XFILLER_0_1145 vgnd vpwr scs8hd_fill_1
XFILLER_5_1001 vgnd vpwr scs8hd_decap_12
XFILLER_16_149 vgnd vpwr scs8hd_decap_6
XANTENNA_logical_tile_io_mode_io__7.logical_tile_io_mode_physical__iopad_0.GPIO_0_.buffer_A
+ top_width_0_height_0__pin_14_ vgnd vpwr scs8hd_diode_2
XANTENNA_logical_tile_io_mode_io__5.logical_tile_io_mode_physical__iopad_0.GPIO_0_.buffer_TEB
+ logical_tile_io_mode_io__5.logical_tile_io_mode_physical__iopad_0.GPIO_0_.buffer/TEB
+ vgnd vpwr scs8hd_diode_2
XPHY_100 vgnd vpwr scs8hd_tapvpwrvgnd_1
XFILLER_13_834 vgnd vpwr scs8hd_decap_12
XFILLER_12_300 vgnd vpwr scs8hd_decap_12
XPHY_111 vgnd vpwr scs8hd_tapvpwrvgnd_1
XPHY_122 vgnd vpwr scs8hd_tapvpwrvgnd_1
XPHY_133 vgnd vpwr scs8hd_tapvpwrvgnd_1
XPHY_144 vgnd vpwr scs8hd_tapvpwrvgnd_1
XPHY_155 vgnd vpwr scs8hd_tapvpwrvgnd_1
XPHY_166 vgnd vpwr scs8hd_tapvpwrvgnd_1
XPHY_188 vgnd vpwr scs8hd_tapvpwrvgnd_1
XPHY_177 vgnd vpwr scs8hd_tapvpwrvgnd_1
XPHY_199 vgnd vpwr scs8hd_tapvpwrvgnd_1
XFILLER_8_337 vgnd vpwr scs8hd_decap_12
XFILLER_4_532 vgnd vpwr scs8hd_decap_12
XFILLER_11_7 vpwr vgnd scs8hd_fill_2
XFILLER_16_683 vgnd vpwr scs8hd_decap_12
XFILLER_15_171 vgnd vpwr scs8hd_decap_12
XPHY_2 vgnd vpwr scs8hd_decap_3
XFILLER_7_51 vgnd vpwr scs8hd_decap_8
XFILLER_7_62 vgnd vpwr scs8hd_decap_12
XFILLER_13_119 vgnd vpwr scs8hd_decap_3
XFILLER_10_837 vgnd vpwr scs8hd_decap_12
XFILLER_1_513 vgnd vpwr scs8hd_decap_12
XFILLER_5_318 vgnd vpwr scs8hd_decap_12
XFILLER_5_830 vgnd vpwr scs8hd_decap_12
XFILLER_8_178 vgnd vpwr scs8hd_decap_8
XFILLER_9_635 vgnd vpwr scs8hd_decap_12
XFILLER_4_373 vgnd vpwr scs8hd_decap_12
XFILLER_0_590 vgnd vpwr scs8hd_decap_12
XFILLER_8_690 vgnd vpwr scs8hd_decap_12
XFILLER_6_605 vgnd vpwr scs8hd_decap_12
XFILLER_10_678 vgnd vpwr scs8hd_decap_12
XFILLER_2_800 vgnd vpwr scs8hd_decap_12
XFILLER_1_354 vgnd vpwr scs8hd_decap_12
XFILLER_5_159 vgnd vpwr scs8hd_decap_12
XFILLER_9_476 vgnd vpwr scs8hd_decap_12
XFILLER_2_129 vgnd vpwr scs8hd_decap_12
XFILLER_14_269 vgnd vpwr scs8hd_decap_6
XFILLER_6_446 vgnd vpwr scs8hd_decap_12
XFILLER_7_903 vgnd vpwr scs8hd_decap_12
XFILLER_1_184 vgnd vpwr scs8hd_decap_12
XANTENNA_logical_tile_io_mode_io__5.logical_tile_io_mode_physical__iopad_0.GPIO_0_.buffer_A
+ top_width_0_height_0__pin_10_ vgnd vpwr scs8hd_diode_2
XFILLER_3_1143 vgnd vpwr scs8hd_decap_3
XFILLER_8_1032 vgnd vpwr scs8hd_decap_12
XFILLER_15_501 vgnd vpwr scs8hd_decap_12
XFILLER_7_733 vgnd vpwr scs8hd_decap_12
XFILLER_6_276 vgnd vpwr scs8hd_decap_12
XFILLER_2_471 vgnd vpwr scs8hd_decap_12
XFILLER_1_86 vgnd vpwr scs8hd_decap_12
XPHY_359 vgnd vpwr scs8hd_tapvpwrvgnd_1
XPHY_348 vgnd vpwr scs8hd_tapvpwrvgnd_1
XPHY_337 vgnd vpwr scs8hd_tapvpwrvgnd_1
XPHY_326 vgnd vpwr scs8hd_tapvpwrvgnd_1
XPHY_304 vgnd vpwr scs8hd_tapvpwrvgnd_1
XPHY_315 vgnd vpwr scs8hd_tapvpwrvgnd_1
XFILLER_3_257 vgnd vpwr scs8hd_decap_12
XFILLER_4_703 vgnd vpwr scs8hd_decap_12
XFILLER_0_986 vgnd vpwr scs8hd_decap_6
XFILLER_0_931 vgnd vpwr scs8hd_decap_12
XFILLER_15_342 vgnd vpwr scs8hd_decap_12
XFILLER_7_574 vgnd vpwr scs8hd_decap_12
X_07_ _05_/A address[2] _10_/A enable _07_/X vgnd vpwr scs8hd_and4_4
XFILLER_0_249 vgnd vpwr scs8hd_decap_12
XFILLER_5_1013 vgnd vpwr scs8hd_decap_12
XFILLER_16_106 vgnd vpwr scs8hd_decap_12
XFILLER_13_802 vpwr vgnd scs8hd_fill_2
XFILLER_12_312 vgnd vpwr scs8hd_decap_12
XPHY_101 vgnd vpwr scs8hd_tapvpwrvgnd_1
XPHY_112 vgnd vpwr scs8hd_tapvpwrvgnd_1
XPHY_123 vgnd vpwr scs8hd_tapvpwrvgnd_1
XPHY_134 vgnd vpwr scs8hd_tapvpwrvgnd_1
XFILLER_13_846 vgnd vpwr scs8hd_decap_8
XFILLER_12_389 vgnd vpwr scs8hd_decap_8
XPHY_145 vgnd vpwr scs8hd_tapvpwrvgnd_1
XPHY_156 vgnd vpwr scs8hd_tapvpwrvgnd_1
XPHY_167 vgnd vpwr scs8hd_tapvpwrvgnd_1
XPHY_189 vgnd vpwr scs8hd_tapvpwrvgnd_1
XPHY_178 vgnd vpwr scs8hd_tapvpwrvgnd_1
XFILLER_8_349 vgnd vpwr scs8hd_decap_12
XFILLER_9_806 vgnd vpwr scs8hd_decap_12
XFILLER_4_544 vgnd vpwr scs8hd_decap_12
XFILLER_16_695 vgnd vpwr scs8hd_decap_12
XPHY_3 vgnd vpwr scs8hd_decap_3
XFILLER_15_1143 vgnd vpwr scs8hd_decap_3
XFILLER_7_74 vgnd vpwr scs8hd_decap_12
XFILLER_8_861 vgnd vpwr scs8hd_decap_12
XANTENNA_logical_tile_io_mode_io__3.logical_tile_io_mode_physical__iopad_0.GPIO_0_.buffer_A
+ top_width_0_height_0__pin_6_ vgnd vpwr scs8hd_diode_2
XFILLER_10_849 vgnd vpwr scs8hd_decap_12
XFILLER_1_525 vgnd vpwr scs8hd_decap_12
XFILLER_16_94 vgnd vpwr scs8hd_decap_12
XFILLER_12_131 vgnd vpwr scs8hd_decap_12
XFILLER_5_842 vgnd vpwr scs8hd_decap_12
XFILLER_9_647 vgnd vpwr scs8hd_decap_12
XFILLER_4_385 vgnd vpwr scs8hd_decap_12
XANTENNA_logical_tile_io_mode_io__3.logical_tile_io_mode_physical__iopad_0.GPIO_0_.buffer_TEB
+ logical_tile_io_mode_io__3.logical_tile_io_mode_physical__iopad_0.GPIO_0_.buffer/TEB
+ vgnd vpwr scs8hd_diode_2
XFILLER_6_1130 vgnd vpwr scs8hd_decap_12
XFILLER_14_418 vgnd vpwr scs8hd_decap_12
XFILLER_6_617 vgnd vpwr scs8hd_decap_12
XFILLER_2_812 vgnd vpwr scs8hd_decap_12
XFILLER_13_440 vgnd vpwr scs8hd_decap_12
XFILLER_5_672 vgnd vpwr scs8hd_decap_12
XFILLER_14_215 vgnd vpwr scs8hd_decap_8
XFILLER_10_410 vgnd vpwr scs8hd_decap_12
XFILLER_11_977 vgnd vpwr scs8hd_decap_12
XFILLER_13_62 vgnd vpwr scs8hd_decap_12
XFILLER_2_642 vgnd vpwr scs8hd_decap_12
XFILLER_1_196 vgnd vpwr scs8hd_decap_12
XFILLER_3_1111 vgnd vpwr scs8hd_decap_12
XFILLER_11_229 vpwr vgnd scs8hd_fill_2
XFILLER_3_428 vgnd vpwr scs8hd_decap_12
XFILLER_8_1044 vgnd vpwr scs8hd_decap_12
XFILLER_15_513 vgnd vpwr scs8hd_decap_12
XANTENNA_logical_tile_io_mode_io__1.logical_tile_io_mode_physical__iopad_0.GPIO_0_.buffer_A
+ top_width_0_height_0__pin_2_ vgnd vpwr scs8hd_diode_2
XFILLER_7_745 vgnd vpwr scs8hd_decap_12
XFILLER_2_483 vgnd vpwr scs8hd_decap_12
XFILLER_3_940 vgnd vpwr scs8hd_decap_12
XFILLER_6_288 vgnd vpwr scs8hd_decap_12
X_23_ gfpga_pad_GPIO_PAD[4] top_width_0_height_0__pin_9_ vgnd vpwr scs8hd_buf_2
XFILLER_1_98 vgnd vpwr scs8hd_decap_12
XANTENNA_logical_tile_io_mode_io__3.logical_tile_io_mode_physical__iopad_0.GPIO_LATCH_mem.LATCH_0_.latch_SLEEPB
+ _12_/Y vgnd vpwr scs8hd_diode_2
XPHY_305 vgnd vpwr scs8hd_tapvpwrvgnd_1
XPHY_316 vgnd vpwr scs8hd_tapvpwrvgnd_1
XPHY_349 vgnd vpwr scs8hd_tapvpwrvgnd_1
XPHY_338 vgnd vpwr scs8hd_tapvpwrvgnd_1
XPHY_327 vgnd vpwr scs8hd_tapvpwrvgnd_1
XFILLER_3_269 vgnd vpwr scs8hd_decap_12
XFILLER_4_715 vgnd vpwr scs8hd_decap_12
XFILLER_16_800 vgnd vpwr scs8hd_decap_6
XFILLER_0_943 vgnd vpwr scs8hd_decap_12
XFILLER_15_354 vgnd vpwr scs8hd_decap_12
XFILLER_7_586 vgnd vpwr scs8hd_decap_12
XFILLER_3_781 vgnd vpwr scs8hd_decap_12
X_06_ address[1] _10_/A vgnd vpwr scs8hd_inv_8
XFILLER_5_1025 vgnd vpwr scs8hd_decap_12
XFILLER_16_118 vgnd vpwr scs8hd_decap_6
XFILLER_12_324 vgnd vpwr scs8hd_decap_12
XPHY_102 vgnd vpwr scs8hd_tapvpwrvgnd_1
XPHY_113 vgnd vpwr scs8hd_tapvpwrvgnd_1
XPHY_124 vgnd vpwr scs8hd_tapvpwrvgnd_1
XPHY_135 vgnd vpwr scs8hd_tapvpwrvgnd_1