* NGSPICE file created from grid_clb.ext - technology: EFS8A

* Black-box entry subcircuit for scs8hd_decap_8 abstract view
.subckt scs8hd_decap_8 vgnd vpwr
.ends

* Black-box entry subcircuit for scs8hd_fill_2 abstract view
.subckt scs8hd_fill_2 vpwr vgnd
.ends

* Black-box entry subcircuit for scs8hd_diode_2 abstract view
.subckt scs8hd_diode_2 DIODE vgnd vpwr
.ends

* Black-box entry subcircuit for scs8hd_decap_4 abstract view
.subckt scs8hd_decap_4 vgnd vpwr
.ends

* Black-box entry subcircuit for scs8hd_ebufn_2 abstract view
.subckt scs8hd_ebufn_2 A TEB Z vgnd vpwr
.ends

* Black-box entry subcircuit for scs8hd_decap_12 abstract view
.subckt scs8hd_decap_12 vgnd vpwr
.ends

* Black-box entry subcircuit for scs8hd_nor2_4 abstract view
.subckt scs8hd_nor2_4 A B Y vgnd vpwr
.ends

* Black-box entry subcircuit for scs8hd_buf_1 abstract view
.subckt scs8hd_buf_1 A X vgnd vpwr
.ends

* Black-box entry subcircuit for scs8hd_decap_6 abstract view
.subckt scs8hd_decap_6 vgnd vpwr
.ends

* Black-box entry subcircuit for scs8hd_fill_1 abstract view
.subckt scs8hd_fill_1 vgnd vpwr
.ends

* Black-box entry subcircuit for scs8hd_inv_1 abstract view
.subckt scs8hd_inv_1 A Y vgnd vpwr
.ends

* Black-box entry subcircuit for scs8hd_decap_3 abstract view
.subckt scs8hd_decap_3 vgnd vpwr
.ends

* Black-box entry subcircuit for scs8hd_lpflow_inputisolatch_1 abstract view
.subckt scs8hd_lpflow_inputisolatch_1 D Q SLEEPB vgnd vpwr
.ends

* Black-box entry subcircuit for scs8hd_or4_4 abstract view
.subckt scs8hd_or4_4 A B C D X vgnd vpwr
.ends

* Black-box entry subcircuit for scs8hd_tapvpwrvgnd_1 abstract view
.subckt scs8hd_tapvpwrvgnd_1 vgnd vpwr
.ends

* Black-box entry subcircuit for scs8hd_conb_1 abstract view
.subckt scs8hd_conb_1 HI LO vgnd vpwr
.ends

* Black-box entry subcircuit for scs8hd_or2_4 abstract view
.subckt scs8hd_or2_4 A B X vgnd vpwr
.ends

* Black-box entry subcircuit for scs8hd_inv_8 abstract view
.subckt scs8hd_inv_8 A Y vgnd vpwr
.ends

* Black-box entry subcircuit for scs8hd_or3_4 abstract view
.subckt scs8hd_or3_4 A B C X vgnd vpwr
.ends

* Black-box entry subcircuit for scs8hd_dfbbp_1 abstract view
.subckt scs8hd_dfbbp_1 CLK D Q QN RESETB SETB vgnd vpwr
.ends

* Black-box entry subcircuit for scs8hd_clkbuf_16 abstract view
.subckt scs8hd_clkbuf_16 A X vgnd vpwr
.ends

* Black-box entry subcircuit for scs8hd_clkbuf_1 abstract view
.subckt scs8hd_clkbuf_1 A X vgnd vpwr
.ends

* Black-box entry subcircuit for scs8hd_nand2_4 abstract view
.subckt scs8hd_nand2_4 A B Y vgnd vpwr
.ends

.subckt grid_clb address[0] address[1] address[2] address[3] address[4] address[5]
+ address[6] address[7] address[8] address[9] bottom_width_0_height_0__pin_10_ bottom_width_0_height_0__pin_14_
+ bottom_width_0_height_0__pin_2_ bottom_width_0_height_0__pin_6_ clk data_in enable
+ left_width_0_height_0__pin_11_ left_width_0_height_0__pin_3_ left_width_0_height_0__pin_7_
+ reset right_width_0_height_0__pin_13_ right_width_0_height_0__pin_1_ right_width_0_height_0__pin_5_
+ right_width_0_height_0__pin_9_ set top_width_0_height_0__pin_0_ top_width_0_height_0__pin_12_
+ top_width_0_height_0__pin_4_ top_width_0_height_0__pin_8_ vpwr vgnd
XFILLER_54_203 vgnd vpwr scs8hd_decap_8
XFILLER_27_406 vpwr vgnd scs8hd_fill_2
XFILLER_39_266 vpwr vgnd scs8hd_fill_2
XFILLER_39_277 vpwr vgnd scs8hd_fill_2
XANTENNA_ltile_clb_0.ltile_clb_fle_1.ltile_clb_n1_lut4__ble4_0.logical_tile_clb_mode_default__fle_mode_n1_lut4__ble4_mode_default__lut4_0.lut4_0_.buf4_2_.scs8hd_buf_1_A
+ ltile_clb_0.mux_fle_1_in_2.INVTX1_14_.scs8hd_inv_1/Y vgnd vpwr scs8hd_diode_2
XANTENNA_ltile_clb_0.mem_fle_3_in_2.LATCH_7_.latch_D data_in vgnd vpwr scs8hd_diode_2
XFILLER_42_409 vgnd vpwr scs8hd_decap_4
XFILLER_35_461 vpwr vgnd scs8hd_fill_2
XFILLER_50_420 vgnd vpwr scs8hd_decap_4
XFILLER_50_431 vgnd vpwr scs8hd_decap_8
Xltile_clb_0.ltile_clb_fle_2.ltile_clb_n1_lut4__ble4_0.logical_tile_clb_mode_default__fle_mode_n1_lut4__ble4_mode_default__lut4_0.lut4_0_.lut4_mux_0_.mux_l1_in_6_.TGATE_0_.scs8hd_ebufn_2
+ ltile_clb_0.ltile_clb_fle_2.ltile_clb_n1_lut4__ble4_0.logical_tile_clb_mode_default__fle_mode_n1_lut4__ble4_mode_default__lut4_0.lut4_0_.lut4_mux_0_.INVTX1_12_.scs8hd_inv_1/Y
+ _613_/Y ltile_clb_0.ltile_clb_fle_2.ltile_clb_n1_lut4__ble4_0.logical_tile_clb_mode_default__fle_mode_n1_lut4__ble4_mode_default__lut4_0.lut4_0_.lut4_mux_0_.mux_l1_in_6_.TGATE_1_.scs8hd_ebufn_2/Z
+ vgnd vpwr scs8hd_ebufn_2
XFILLER_22_166 vgnd vpwr scs8hd_decap_8
XANTENNA_ltile_clb_0.mux_fle_2_in_3.mux_l2_in_0_.TGATE_2_.scs8hd_ebufn_2_A ltile_clb_0.mux_fle_2_in_3.mux_l1_in_2_.TGATE_2_.scs8hd_ebufn_2/Z
+ vgnd vpwr scs8hd_diode_2
XFILLER_77_15 vgnd vpwr scs8hd_decap_12
XANTENNA_ltile_clb_0.mem_fle_3_in_3.LATCH_5_.latch_D data_in vgnd vpwr scs8hd_diode_2
XFILLER_77_59 vpwr vgnd scs8hd_fill_2
XANTENNA_ltile_clb_0.mem_fle_0_in_0.LATCH_7_.latch_SLEEPB _518_/Y vgnd vpwr scs8hd_diode_2
XFILLER_77_339 vpwr vgnd scs8hd_fill_2
XFILLER_73_501 vgnd vpwr scs8hd_decap_12
XFILLER_45_214 vpwr vgnd scs8hd_fill_2
XFILLER_45_236 vpwr vgnd scs8hd_fill_2
X_501_ _421_/A _495_/X _501_/Y vgnd vpwr scs8hd_nor2_4
XFILLER_45_269 vpwr vgnd scs8hd_fill_2
X_432_ _432_/A _429_/X _432_/Y vgnd vpwr scs8hd_nor2_4
XANTENNA_ltile_clb_0.ltile_clb_fle_1.ltile_clb_n1_lut4__ble4_0.logical_tile_clb_mode_default__fle_mode_n1_lut4__ble4_mode_default__lut4_0.lut4_0_.lut4_mux_0_.mux_l1_in_3_.TGATE_0_.scs8hd_ebufn_2_TEB
+ _621_/Y vgnd vpwr scs8hd_diode_2
X_363_ _374_/A _365_/B _363_/Y vgnd vpwr scs8hd_nor2_4
X_294_ _293_/X _569_/A vgnd vpwr scs8hd_buf_1
XFILLER_9_159 vgnd vpwr scs8hd_decap_12
XFILLER_5_398 vpwr vgnd scs8hd_fill_2
XANTENNA_ltile_clb_0.ltile_clb_fle_3.ltile_clb_n1_lut4__ble4_0.logical_tile_clb_mode_default__fle_mode_n1_lut4__ble4_mode_default__lut4_0.lut4_0_.lut4_mux_0_.INVTX1_3_.scs8hd_inv_1_A
+ ltile_clb_0.ltile_clb_fle_3.ltile_clb_n1_lut4__ble4_0.logical_tile_clb_mode_default__fle_mode_n1_lut4__ble4_mode_default__lut4_0.lut4_LATCH_mem.LATCH_3_.latch/Q
+ vgnd vpwr scs8hd_diode_2
XFILLER_68_328 vgnd vpwr scs8hd_decap_8
XFILLER_68_306 vpwr vgnd scs8hd_fill_2
XANTENNA_ltile_clb_0.mux_fle_1_in_3.mux_l1_in_1_.TGATE_2_.scs8hd_ebufn_2_A ltile_clb_0.mux_fle_1_in_3.INVTX1_6_.scs8hd_inv_1/Y
+ vgnd vpwr scs8hd_diode_2
XFILLER_36_225 vpwr vgnd scs8hd_fill_2
XANTENNA_ltile_clb_0.ltile_clb_fle_1.ltile_clb_n1_lut4__ble4_0.logical_tile_clb_mode_default__fle_mode_n1_lut4__ble4_mode_default__lut4_0.lut4_0_.lut4_mux_0_.mux_l3_in_1_.TGATE_1_.scs8hd_ebufn_2_A
+ ltile_clb_0.ltile_clb_fle_1.ltile_clb_n1_lut4__ble4_0.logical_tile_clb_mode_default__fle_mode_n1_lut4__ble4_mode_default__lut4_0.lut4_0_.lut4_mux_0_.mux_l2_in_3_.TGATE_1_.scs8hd_ebufn_2/Z
+ vgnd vpwr scs8hd_diode_2
XFILLER_36_269 vgnd vpwr scs8hd_decap_6
XFILLER_17_472 vgnd vpwr scs8hd_decap_8
XFILLER_44_280 vgnd vpwr scs8hd_fill_1
Xltile_clb_0.ltile_clb_fle_3.ltile_clb_n1_lut4__ble4_0.logical_tile_clb_mode_default__fle_mode_n1_lut4__ble4_mode_default__lut4_0.lut4_0_.lut4_mux_0_.INVTX1_3_.scs8hd_inv_1
+ ltile_clb_0.ltile_clb_fle_3.ltile_clb_n1_lut4__ble4_0.logical_tile_clb_mode_default__fle_mode_n1_lut4__ble4_mode_default__lut4_0.lut4_LATCH_mem.LATCH_3_.latch/Q
+ ltile_clb_0.ltile_clb_fle_3.ltile_clb_n1_lut4__ble4_0.logical_tile_clb_mode_default__fle_mode_n1_lut4__ble4_mode_default__lut4_0.lut4_0_.lut4_mux_0_.INVTX1_3_.scs8hd_inv_1/Y
+ vgnd vpwr scs8hd_inv_1
XFILLER_32_486 vgnd vpwr scs8hd_fill_1
Xltile_clb_0.mux_fle_2_in_1.INVTX1_5_.scs8hd_inv_1 right_width_0_height_0__pin_5_
+ ltile_clb_0.mux_fle_2_in_1.INVTX1_5_.scs8hd_inv_1/Y vgnd vpwr scs8hd_inv_1
XANTENNA__304__A _304_/A vgnd vpwr scs8hd_diode_2
Xltile_clb_0.mux_fle_0_in_1.mux_l2_in_0_.TGATE_3_.scs8hd_ebufn_2 ltile_clb_0.mux_fle_0_in_1.mux_l1_in_3_.TGATE_1_.scs8hd_ebufn_2/Z
+ ltile_clb_0.mem_fle_0_in_1.LATCH_7_.latch/Q ltile_clb_0.mux_fle_0_in_1.INVTX1_14_.scs8hd_inv_1/A
+ vgnd vpwr scs8hd_ebufn_2
XFILLER_67_372 vpwr vgnd scs8hd_fill_2
XANTENNA__396__D _346_/D vgnd vpwr scs8hd_diode_2
XFILLER_27_225 vpwr vgnd scs8hd_fill_2
XFILLER_82_342 vgnd vpwr scs8hd_decap_12
XFILLER_27_236 vpwr vgnd scs8hd_fill_2
XFILLER_27_258 vpwr vgnd scs8hd_fill_2
XFILLER_63_39 vgnd vpwr scs8hd_decap_12
XANTENNA_ltile_clb_0.ltile_clb_fle_0.ltile_clb_n1_lut4__ble4_0.mux_ble4_out_0.mux_l1_in_0_.TGATE_0_.scs8hd_ebufn_2_A
+ ltile_clb_0.ltile_clb_fle_0.ltile_clb_n1_lut4__ble4_0.mux_ble4_out_0.INVTX1_0_.scs8hd_inv_1/Y
+ vgnd vpwr scs8hd_diode_2
XFILLER_27_269 vpwr vgnd scs8hd_fill_2
XFILLER_82_397 vgnd vpwr scs8hd_decap_6
XANTENNA_ltile_clb_0.mux_fle_3_in_0.mux_l1_in_0_.TGATE_2_.scs8hd_ebufn_2_TEB ltile_clb_0.mem_fle_3_in_0.LATCH_2_.latch/Q
+ vgnd vpwr scs8hd_diode_2
Xltile_clb_0.ltile_clb_fle_1.ltile_clb_n1_lut4__ble4_0.logical_tile_clb_mode_default__fle_mode_n1_lut4__ble4_mode_default__lut4_0.lut4_0_.lut4_mux_0_.mux_l1_in_2_.TGATE_1_.scs8hd_ebufn_2
+ ltile_clb_0.ltile_clb_fle_1.ltile_clb_n1_lut4__ble4_0.logical_tile_clb_mode_default__fle_mode_n1_lut4__ble4_mode_default__lut4_0.lut4_0_.lut4_mux_0_.INVTX1_5_.scs8hd_inv_1/Y
+ _620_/Y ltile_clb_0.ltile_clb_fle_1.ltile_clb_n1_lut4__ble4_0.logical_tile_clb_mode_default__fle_mode_n1_lut4__ble4_mode_default__lut4_0.lut4_0_.lut4_mux_0_.mux_l2_in_1_.TGATE_0_.scs8hd_ebufn_2/A
+ vgnd vpwr scs8hd_ebufn_2
XFILLER_23_442 vgnd vpwr scs8hd_decap_3
XFILLER_50_272 vgnd vpwr scs8hd_fill_1
XFILLER_12_32 vgnd vpwr scs8hd_decap_12
XFILLER_6_129 vgnd vpwr scs8hd_decap_12
Xltile_clb_0.ltile_clb_fle_0.ltile_clb_n1_lut4__ble4_0.logical_tile_clb_mode_default__fle_mode_n1_lut4__ble4_mode_default__lut4_0.lut4_0_.lut4_mux_0_.INVTX1_14_.scs8hd_inv_1
+ ltile_clb_0.ltile_clb_fle_0.ltile_clb_n1_lut4__ble4_0.logical_tile_clb_mode_default__fle_mode_n1_lut4__ble4_mode_default__lut4_0.lut4_LATCH_mem.LATCH_14_.latch/Q
+ ltile_clb_0.ltile_clb_fle_0.ltile_clb_n1_lut4__ble4_0.logical_tile_clb_mode_default__fle_mode_n1_lut4__ble4_mode_default__lut4_0.lut4_0_.lut4_mux_0_.INVTX1_14_.scs8hd_inv_1/Y
+ vgnd vpwr scs8hd_inv_1
XANTENNA_ltile_clb_0.mux_fle_0_in_2.INVTX1_7_.scs8hd_inv_1_A left_width_0_height_0__pin_7_
+ vgnd vpwr scs8hd_diode_2
XFILLER_2_335 vgnd vpwr scs8hd_fill_1
XFILLER_77_147 vgnd vpwr scs8hd_decap_12
XANTENNA_ltile_clb_0.ltile_clb_fle_1.ltile_clb_n1_lut4__ble4_0.logical_tile_clb_mode_default__fle_mode_n1_lut4__ble4_mode_default__lut4_0.lut4_0_.lut4_mux_0_.INVTX1_13_.scs8hd_inv_1_A
+ ltile_clb_0.ltile_clb_fle_1.ltile_clb_n1_lut4__ble4_0.logical_tile_clb_mode_default__fle_mode_n1_lut4__ble4_mode_default__lut4_0.lut4_LATCH_mem.LATCH_13_.latch/Q
+ vgnd vpwr scs8hd_diode_2
XFILLER_58_350 vgnd vpwr scs8hd_fill_1
Xltile_clb_0.ltile_clb_fle_3.ltile_clb_n1_lut4__ble4_0.logical_tile_clb_mode_default__fle_mode_n1_lut4__ble4_mode_default__lut4_0.lut4_LATCH_mem.LATCH_0_.latch
+ data_in ltile_clb_0.ltile_clb_fle_3.ltile_clb_n1_lut4__ble4_0.logical_tile_clb_mode_default__fle_mode_n1_lut4__ble4_mode_default__lut4_0.lut4_LATCH_mem.LATCH_0_.latch/Q
+ _546_/Y vgnd vpwr scs8hd_lpflow_inputisolatch_1
XFILLER_37_51 vgnd vpwr scs8hd_decap_8
XFILLER_46_512 vgnd vpwr scs8hd_decap_4
XFILLER_37_62 vgnd vpwr scs8hd_decap_12
XFILLER_73_397 vgnd vpwr scs8hd_fill_1
XFILLER_26_291 vgnd vpwr scs8hd_decap_3
X_415_ _328_/A _432_/A vgnd vpwr scs8hd_buf_1
X_346_ address[8] _369_/B _346_/C _346_/D _347_/A vgnd vpwr scs8hd_or4_4
Xltile_clb_0.mux_fle_2_in_2.mux_l1_in_2_.TGATE_1_.scs8hd_ebufn_2 ltile_clb_0.mux_fle_2_in_2.INVTX1_9_.scs8hd_inv_1/Y
+ ltile_clb_0.mem_fle_2_in_2.LATCH_1_.latch/Q ltile_clb_0.mux_fle_2_in_2.mux_l2_in_0_.TGATE_2_.scs8hd_ebufn_2/A
+ vgnd vpwr scs8hd_ebufn_2
Xltile_clb_0.mux_fle_0_in_2.mux_l1_in_3_.TGATE_2_.scs8hd_ebufn_2 _642_/HI ltile_clb_0.mem_fle_0_in_2.LATCH_2_.latch/Q
+ ltile_clb_0.mux_fle_0_in_2.mux_l1_in_3_.TGATE_0_.scs8hd_ebufn_2/Z vgnd vpwr scs8hd_ebufn_2
X_277_ _267_/X _564_/A _277_/Y vgnd vpwr scs8hd_nor2_4
XANTENNA_ltile_clb_0.ltile_clb_fle_0.ltile_clb_n1_lut4__ble4_0.logical_tile_clb_mode_default__fle_mode_n1_lut4__ble4_mode_default__lut4_0.lut4_0_.lut4_mux_0_.mux_l1_in_4_.TGATE_0_.scs8hd_ebufn_2_A
+ ltile_clb_0.ltile_clb_fle_0.ltile_clb_n1_lut4__ble4_0.logical_tile_clb_mode_default__fle_mode_n1_lut4__ble4_mode_default__lut4_0.lut4_0_.lut4_mux_0_.INVTX1_8_.scs8hd_inv_1/Y
+ vgnd vpwr scs8hd_diode_2
Xltile_clb_0.mux_fle_3_in_2.INVTX1_0_.scs8hd_inv_1 top_width_0_height_0__pin_0_ ltile_clb_0.mux_fle_3_in_2.INVTX1_0_.scs8hd_inv_1/Y
+ vgnd vpwr scs8hd_inv_1
XFILLER_5_184 vgnd vpwr scs8hd_decap_12
XFILLER_78_80 vgnd vpwr scs8hd_decap_12
XANTENNA_ltile_clb_0.mux_fle_1_in_3.INVTX1_4_.scs8hd_inv_1_A top_width_0_height_0__pin_4_
+ vgnd vpwr scs8hd_diode_2
XFILLER_76_180 vgnd vpwr scs8hd_decap_12
XFILLER_52_515 vgnd vpwr scs8hd_fill_1
XFILLER_24_206 vgnd vpwr scs8hd_decap_4
XANTENNA_ltile_clb_0.mux_fle_2_in_0.INVTX1_0_.scs8hd_inv_1_A top_width_0_height_0__pin_0_
+ vgnd vpwr scs8hd_diode_2
XANTENNA_ltile_clb_0.ltile_clb_fle_2.ltile_clb_n1_lut4__ble4_0.logical_tile_clb_mode_default__fle_mode_n1_lut4__ble4_mode_default__lut4_0.lut4_LATCH_mem.LATCH_1_.latch_SLEEPB
+ _571_/Y vgnd vpwr scs8hd_diode_2
Xltile_clb_0.mux_fle_2_in_2.INVTX1_9_.scs8hd_inv_1 right_width_0_height_0__pin_9_
+ ltile_clb_0.mux_fle_2_in_2.INVTX1_9_.scs8hd_inv_1/Y vgnd vpwr scs8hd_inv_1
XFILLER_47_309 vpwr vgnd scs8hd_fill_2
XFILLER_74_117 vgnd vpwr scs8hd_decap_12
Xltile_clb_0.ltile_clb_fle_1.ltile_clb_n1_lut4__ble4_0.logical_tile_clb_mode_default__fle_mode_n1_lut4__ble4_mode_default__lut4_0.lut4_0_.lut4_mux_0_.INVTX1_8_.scs8hd_inv_1
+ ltile_clb_0.ltile_clb_fle_1.ltile_clb_n1_lut4__ble4_0.logical_tile_clb_mode_default__fle_mode_n1_lut4__ble4_mode_default__lut4_0.lut4_LATCH_mem.LATCH_8_.latch/Q
+ ltile_clb_0.ltile_clb_fle_1.ltile_clb_n1_lut4__ble4_0.logical_tile_clb_mode_default__fle_mode_n1_lut4__ble4_mode_default__lut4_0.lut4_0_.lut4_mux_0_.INVTX1_8_.scs8hd_inv_1/Y
+ vgnd vpwr scs8hd_inv_1
XFILLER_74_27 vgnd vpwr scs8hd_decap_4
XFILLER_43_515 vgnd vpwr scs8hd_fill_1
XPHY_702 vgnd vpwr scs8hd_tapvpwrvgnd_1
XFILLER_55_397 vpwr vgnd scs8hd_fill_2
XFILLER_15_239 vgnd vpwr scs8hd_decap_3
XANTENNA_ltile_clb_0.mem_fle_0_in_3.LATCH_0_.latch_SLEEPB _492_/Y vgnd vpwr scs8hd_diode_2
XPHY_735 vgnd vpwr scs8hd_tapvpwrvgnd_1
XPHY_724 vgnd vpwr scs8hd_tapvpwrvgnd_1
XPHY_713 vgnd vpwr scs8hd_tapvpwrvgnd_1
XPHY_768 vgnd vpwr scs8hd_tapvpwrvgnd_1
XPHY_757 vgnd vpwr scs8hd_tapvpwrvgnd_1
XPHY_746 vgnd vpwr scs8hd_tapvpwrvgnd_1
XFILLER_11_423 vpwr vgnd scs8hd_fill_2
XPHY_779 vgnd vpwr scs8hd_tapvpwrvgnd_1
XFILLER_11_434 vpwr vgnd scs8hd_fill_2
XFILLER_23_86 vgnd vpwr scs8hd_decap_12
XANTENNA_ltile_clb_0.mux_fle_0_in_2.mux_l1_in_3_.TGATE_0_.scs8hd_ebufn_2_TEB ltile_clb_0.mem_fle_0_in_2.LATCH_0_.latch/Q
+ vgnd vpwr scs8hd_diode_2
Xltile_clb_0.mem_fle_0_in_1.LATCH_2_.latch data_in ltile_clb_0.mem_fle_0_in_1.LATCH_2_.latch/Q
+ _512_/Y vgnd vpwr scs8hd_lpflow_inputisolatch_1
XFILLER_78_401 vgnd vpwr scs8hd_decap_6
XFILLER_2_154 vgnd vpwr scs8hd_decap_12
XANTENNA__598__B _580_/X vgnd vpwr scs8hd_diode_2
XANTENNA_ltile_clb_0.mux_fle_3_in_3.mux_l1_in_1_.TGATE_2_.scs8hd_ebufn_2_TEB ltile_clb_0.mem_fle_3_in_3.LATCH_2_.latch/Q
+ vgnd vpwr scs8hd_diode_2
XFILLER_61_301 vpwr vgnd scs8hd_fill_2
XFILLER_73_194 vpwr vgnd scs8hd_fill_2
XFILLER_73_172 vpwr vgnd scs8hd_fill_2
Xltile_clb_0.mem_fle_1_in_1.LATCH_1_.latch data_in ltile_clb_0.mem_fle_1_in_1.LATCH_1_.latch/Q
+ _469_/Y vgnd vpwr scs8hd_lpflow_inputisolatch_1
XFILLER_64_93 vgnd vpwr scs8hd_decap_12
XFILLER_61_367 vgnd vpwr scs8hd_decap_8
XFILLER_61_356 vpwr vgnd scs8hd_fill_2
XANTENNA_ltile_clb_0.ltile_clb_fle_2.ltile_clb_n1_lut4__ble4_0.logical_tile_clb_mode_default__fle_mode_n1_lut4__ble4_mode_default__lut4_0.lut4_0_.lut4_mux_0_.INVTX1_5_.scs8hd_inv_1_A
+ ltile_clb_0.ltile_clb_fle_2.ltile_clb_n1_lut4__ble4_0.logical_tile_clb_mode_default__fle_mode_n1_lut4__ble4_mode_default__lut4_0.lut4_LATCH_mem.LATCH_5_.latch/Q
+ vgnd vpwr scs8hd_diode_2
X_329_ _374_/A _338_/B _329_/Y vgnd vpwr scs8hd_nor2_4
XANTENNA_ltile_clb_0.mux_fle_3_in_3.INVTX1_10_.scs8hd_inv_1_A bottom_width_0_height_0__pin_10_
+ vgnd vpwr scs8hd_diode_2
Xltile_clb_0.mux_fle_3_in_3.INVTX1_4_.scs8hd_inv_1 top_width_0_height_0__pin_4_ ltile_clb_0.mux_fle_3_in_3.INVTX1_4_.scs8hd_inv_1/Y
+ vgnd vpwr scs8hd_inv_1
Xltile_clb_0.mem_fle_2_in_1.LATCH_0_.latch data_in ltile_clb_0.mem_fle_2_in_1.LATCH_0_.latch/Q
+ _426_/Y vgnd vpwr scs8hd_lpflow_inputisolatch_1
XFILLER_50_3 vgnd vpwr scs8hd_decap_12
XANTENNA_ltile_clb_0.ltile_clb_fle_0.ltile_clb_n1_lut4__ble4_0.logical_tile_clb_mode_default__fle_mode_n1_lut4__ble4_mode_default__lut4_0.lut4_0_.lut4_mux_0_.mux_l1_in_6_.TGATE_1_.scs8hd_ebufn_2_A
+ ltile_clb_0.ltile_clb_fle_0.ltile_clb_n1_lut4__ble4_0.logical_tile_clb_mode_default__fle_mode_n1_lut4__ble4_mode_default__lut4_0.lut4_0_.lut4_mux_0_.INVTX1_13_.scs8hd_inv_1/Y
+ vgnd vpwr scs8hd_diode_2
XANTENNA__301__B _545_/A vgnd vpwr scs8hd_diode_2
XFILLER_29_309 vpwr vgnd scs8hd_fill_2
XFILLER_69_489 vgnd vpwr scs8hd_decap_12
XFILLER_56_117 vgnd vpwr scs8hd_decap_12
XFILLER_25_515 vgnd vpwr scs8hd_fill_1
XFILLER_37_353 vpwr vgnd scs8hd_fill_2
Xltile_clb_0.mux_fle_0_in_0.mux_l1_in_2_.TGATE_0_.scs8hd_ebufn_2 ltile_clb_0.mux_fle_0_in_0.INVTX1_8_.scs8hd_inv_1/Y
+ ltile_clb_0.mem_fle_0_in_0.LATCH_0_.latch/Q ltile_clb_0.mux_fle_0_in_0.mux_l1_in_2_.TGATE_1_.scs8hd_ebufn_2/Z
+ vgnd vpwr scs8hd_ebufn_2
XFILLER_52_312 vpwr vgnd scs8hd_fill_2
XANTENNA_ltile_clb_0.mux_fle_0_in_3.mux_l1_in_2_.TGATE_0_.scs8hd_ebufn_2_A ltile_clb_0.mux_fle_0_in_3.INVTX1_8_.scs8hd_inv_1/Y
+ vgnd vpwr scs8hd_diode_2
XFILLER_69_27 vgnd vpwr scs8hd_decap_12
XANTENNA_ltile_clb_0.mux_fle_3_in_1.mux_l1_in_2_.TGATE_0_.scs8hd_ebufn_2_A ltile_clb_0.mux_fle_3_in_1.INVTX1_8_.scs8hd_inv_1/Y
+ vgnd vpwr scs8hd_diode_2
XANTENNA_ltile_clb_0.mem_fle_1_in_2.LATCH_0_.latch_SLEEPB _459_/Y vgnd vpwr scs8hd_diode_2
Xltile_clb_0.ltile_clb_fle_0.ltile_clb_n1_lut4__ble4_0.logical_tile_clb_mode_default__fle_mode_n1_lut4__ble4_mode_default__lut4_0.lut4_0_.lut4_mux_0_.mux_l2_in_3_.TGATE_0_.scs8hd_ebufn_2
+ ltile_clb_0.ltile_clb_fle_0.ltile_clb_n1_lut4__ble4_0.logical_tile_clb_mode_default__fle_mode_n1_lut4__ble4_mode_default__lut4_0.lut4_0_.lut4_mux_0_.mux_l1_in_6_.TGATE_0_.scs8hd_ebufn_2/Z
+ _631_/Y ltile_clb_0.ltile_clb_fle_0.ltile_clb_n1_lut4__ble4_0.logical_tile_clb_mode_default__fle_mode_n1_lut4__ble4_mode_default__lut4_0.lut4_0_.lut4_mux_0_.mux_l3_in_1_.TGATE_1_.scs8hd_ebufn_2/A
+ vgnd vpwr scs8hd_ebufn_2
XFILLER_16_515 vgnd vpwr scs8hd_fill_1
XFILLER_43_301 vpwr vgnd scs8hd_fill_2
XANTENNA_ltile_clb_0.ltile_clb_fle_3.ltile_clb_n1_lut4__ble4_0.logical_tile_clb_mode_default__fle_mode_n1_lut4__ble4_mode_default__lut4_0.lut4_0_.lut4_mux_0_.mux_l3_in_1_.TGATE_1_.scs8hd_ebufn_2_A
+ ltile_clb_0.ltile_clb_fle_3.ltile_clb_n1_lut4__ble4_0.logical_tile_clb_mode_default__fle_mode_n1_lut4__ble4_mode_default__lut4_0.lut4_0_.lut4_mux_0_.mux_l3_in_1_.TGATE_1_.scs8hd_ebufn_2/A
+ vgnd vpwr scs8hd_diode_2
XFILLER_28_386 vgnd vpwr scs8hd_decap_8
XFILLER_43_334 vpwr vgnd scs8hd_fill_2
XANTENNA_ltile_clb_0.ltile_clb_fle_2.ltile_clb_n1_lut4__ble4_0.logical_tile_clb_mode_default__fle_mode_n1_lut4__ble4_mode_default__lut4_0.lut4_LATCH_mem.LATCH_13_.latch_D
+ data_in vgnd vpwr scs8hd_diode_2
Xltile_clb_0.mem_fle_0_in_3.LATCH_5_.latch data_in ltile_clb_0.mem_fle_0_in_3.LATCH_5_.latch/Q
+ _487_/Y vgnd vpwr scs8hd_lpflow_inputisolatch_1
XPHY_510 vgnd vpwr scs8hd_tapvpwrvgnd_1
XFILLER_43_345 vgnd vpwr scs8hd_decap_4
Xltile_clb_0.ltile_clb_fle_1.ltile_clb_n1_lut4__ble4_0.logical_tile_clb_mode_default__fle_mode_n1_lut4__ble4_mode_default__lut4_0.lut4_0_.buf4_2_.scs8hd_buf_1
+ ltile_clb_0.mux_fle_1_in_2.INVTX1_14_.scs8hd_inv_1/Y _624_/A vgnd vpwr scs8hd_buf_1
XPHY_521 vgnd vpwr scs8hd_tapvpwrvgnd_1
XFILLER_43_378 vgnd vpwr scs8hd_fill_1
XPHY_532 vgnd vpwr scs8hd_tapvpwrvgnd_1
XPHY_543 vgnd vpwr scs8hd_tapvpwrvgnd_1
Xltile_clb_0.mux_fle_1_in_3.mux_l1_in_2_.TGATE_1_.scs8hd_ebufn_2 ltile_clb_0.mux_fle_1_in_3.INVTX1_9_.scs8hd_inv_1/Y
+ ltile_clb_0.mem_fle_1_in_3.LATCH_1_.latch/Q ltile_clb_0.mux_fle_1_in_3.mux_l1_in_2_.TGATE_3_.scs8hd_ebufn_2/Z
+ vgnd vpwr scs8hd_ebufn_2
Xltile_clb_0.mux_fle_3_in_3.mux_l1_in_1_.TGATE_0_.scs8hd_ebufn_2 ltile_clb_0.mux_fle_3_in_3.INVTX1_4_.scs8hd_inv_1/Y
+ ltile_clb_0.mem_fle_3_in_3.LATCH_0_.latch/Q ltile_clb_0.mux_fle_3_in_3.mux_l1_in_1_.TGATE_0_.scs8hd_ebufn_2/Z
+ vgnd vpwr scs8hd_ebufn_2
XFILLER_70_197 vgnd vpwr scs8hd_decap_6
XPHY_587 vgnd vpwr scs8hd_tapvpwrvgnd_1
XPHY_554 vgnd vpwr scs8hd_tapvpwrvgnd_1
XPHY_565 vgnd vpwr scs8hd_tapvpwrvgnd_1
XPHY_576 vgnd vpwr scs8hd_tapvpwrvgnd_1
XPHY_598 vgnd vpwr scs8hd_tapvpwrvgnd_1
XFILLER_11_297 vpwr vgnd scs8hd_fill_2
XANTENNA_ltile_clb_0.ltile_clb_fle_2.ltile_clb_n1_lut4__ble4_0.logical_tile_clb_mode_default__fle_mode_n1_lut4__ble4_mode_default__lut4_0.lut4_0_.lut4_mux_0_.mux_l3_in_0_.TGATE_0_.scs8hd_ebufn_2_TEB
+ _617_/Y vgnd vpwr scs8hd_diode_2
Xltile_clb_0.mem_fle_1_in_3.LATCH_4_.latch data_in ltile_clb_0.mem_fle_1_in_3.LATCH_4_.latch/Q
+ _444_/Y vgnd vpwr scs8hd_lpflow_inputisolatch_1
XANTENNA__402__A _391_/A vgnd vpwr scs8hd_diode_2
XFILLER_38_117 vgnd vpwr scs8hd_decap_12
XFILLER_66_459 vgnd vpwr scs8hd_decap_6
XFILLER_19_342 vpwr vgnd scs8hd_fill_2
XFILLER_74_492 vgnd vpwr scs8hd_decap_12
Xltile_clb_0.mem_fle_2_in_3.LATCH_3_.latch data_in ltile_clb_0.mem_fle_2_in_3.LATCH_3_.latch/Q
+ _392_/Y vgnd vpwr scs8hd_lpflow_inputisolatch_1
XFILLER_46_172 vgnd vpwr scs8hd_fill_1
XFILLER_46_194 vgnd vpwr scs8hd_fill_1
XFILLER_34_367 vpwr vgnd scs8hd_fill_2
XFILLER_61_175 vpwr vgnd scs8hd_fill_2
Xltile_clb_0.mem_fle_3_in_3.LATCH_2_.latch data_in ltile_clb_0.mem_fle_3_in_3.LATCH_2_.latch/Q
+ _338_/Y vgnd vpwr scs8hd_lpflow_inputisolatch_1
XFILLER_6_290 vpwr vgnd scs8hd_fill_2
XANTENNA__312__A _603_/A vgnd vpwr scs8hd_diode_2
XFILLER_69_264 vpwr vgnd scs8hd_fill_2
XFILLER_57_404 vpwr vgnd scs8hd_fill_2
XFILLER_57_437 vpwr vgnd scs8hd_fill_2
Xltile_clb_0.mux_fle_3_in_0.mux_l1_in_0_.TGATE_3_.scs8hd_ebufn_2 ltile_clb_0.mux_fle_3_in_0.INVTX1_3_.scs8hd_inv_1/Y
+ ltile_clb_0.mem_fle_3_in_0.LATCH_3_.latch/Q ltile_clb_0.mux_fle_3_in_0.mux_l1_in_0_.TGATE_2_.scs8hd_ebufn_2/Z
+ vgnd vpwr scs8hd_ebufn_2
XFILLER_65_492 vpwr vgnd scs8hd_fill_2
XFILLER_25_301 vpwr vgnd scs8hd_fill_2
XFILLER_37_172 vgnd vpwr scs8hd_decap_4
XFILLER_80_440 vgnd vpwr scs8hd_fill_1
XFILLER_25_367 vgnd vpwr scs8hd_fill_1
XFILLER_80_495 vgnd vpwr scs8hd_decap_12
XANTENNA_ltile_clb_0.mem_fle_2_in_1.LATCH_0_.latch_SLEEPB _426_/Y vgnd vpwr scs8hd_diode_2
XFILLER_71_39 vgnd vpwr scs8hd_decap_12
Xltile_clb_0.ltile_clb_fle_1.ltile_clb_n1_lut4__ble4_0.logical_tile_clb_mode_default__fle_mode_n1_lut4__ble4_mode_default__lut4_0.lut4_0_.lut4_mux_0_.INVTX1_14_.scs8hd_inv_1
+ ltile_clb_0.ltile_clb_fle_1.ltile_clb_n1_lut4__ble4_0.logical_tile_clb_mode_default__fle_mode_n1_lut4__ble4_mode_default__lut4_0.lut4_LATCH_mem.LATCH_14_.latch/Q
+ ltile_clb_0.ltile_clb_fle_1.ltile_clb_n1_lut4__ble4_0.logical_tile_clb_mode_default__fle_mode_n1_lut4__ble4_mode_default__lut4_0.lut4_0_.lut4_mux_0_.INVTX1_14_.scs8hd_inv_1/Y
+ vgnd vpwr scs8hd_inv_1
XANTENNA_ltile_clb_0.mux_fle_0_in_2.mux_l2_in_0_.TGATE_3_.scs8hd_ebufn_2_TEB ltile_clb_0.mem_fle_0_in_2.LATCH_7_.latch/Q
+ vgnd vpwr scs8hd_diode_2
XFILLER_20_32 vgnd vpwr scs8hd_decap_12
XANTENNA_ltile_clb_0.ltile_clb_fle_2.ltile_clb_n1_lut4__ble4_0.logical_tile_clb_mode_default__fle_mode_n1_lut4__ble4_mode_default__lut4_0.lut4_0_.lut4_mux_0_.mux_l1_in_4_.TGATE_0_.scs8hd_ebufn_2_A
+ ltile_clb_0.ltile_clb_fle_2.ltile_clb_n1_lut4__ble4_0.logical_tile_clb_mode_default__fle_mode_n1_lut4__ble4_mode_default__lut4_0.lut4_0_.lut4_mux_0_.INVTX1_8_.scs8hd_inv_1/Y
+ vgnd vpwr scs8hd_diode_2
XFILLER_75_212 vpwr vgnd scs8hd_fill_2
Xltile_clb_0.ltile_clb_fle_2.ltile_clb_n1_lut4__ble4_0.mem_ble4_out_0.LATCH_0_.latch
+ data_in ltile_clb_0.ltile_clb_fle_2.ltile_clb_n1_lut4__ble4_0.mem_ble4_out_0.LATCH_0_.latch/Q
+ _577_/Y vgnd vpwr scs8hd_lpflow_inputisolatch_1
XFILLER_75_245 vpwr vgnd scs8hd_fill_2
XFILLER_75_234 vpwr vgnd scs8hd_fill_2
XFILLER_29_74 vgnd vpwr scs8hd_decap_12
XFILLER_75_278 vpwr vgnd scs8hd_fill_2
XFILLER_75_267 vpwr vgnd scs8hd_fill_2
XANTENNA_ltile_clb_0.ltile_clb_fle_0.ltile_clb_n1_lut4__ble4_0.logical_tile_clb_mode_default__fle_mode_n1_lut4__ble4_mode_default__lut4_0.lut4_LATCH_mem.LATCH_6_.latch_SLEEPB
+ _285_/Y vgnd vpwr scs8hd_diode_2
XFILLER_16_312 vgnd vpwr scs8hd_fill_1
XFILLER_28_183 vpwr vgnd scs8hd_fill_2
XFILLER_71_440 vpwr vgnd scs8hd_fill_2
XANTENNA_ltile_clb_0.mux_fle_2_in_2.INVTX1_14_.scs8hd_inv_1_A ltile_clb_0.mux_fle_2_in_2.INVTX1_14_.scs8hd_inv_1/A
+ vgnd vpwr scs8hd_diode_2
X_594_ _542_/A _588_/X _594_/Y vgnd vpwr scs8hd_nor2_4
XFILLER_45_51 vgnd vpwr scs8hd_decap_8
XFILLER_45_62 vgnd vpwr scs8hd_decap_12
XFILLER_71_473 vgnd vpwr scs8hd_decap_12
Xltile_clb_0.ltile_clb_fle_1.ltile_clb_n1_lut4__ble4_0.logical_tile_clb_mode_default__fle_mode_n1_lut4__ble4_mode_default__lut4_0.lut4_0_.lut4_mux_0_.mux_l4_in_0_.TGATE_0_.scs8hd_ebufn_2
+ ltile_clb_0.ltile_clb_fle_1.ltile_clb_n1_lut4__ble4_0.logical_tile_clb_mode_default__fle_mode_n1_lut4__ble4_mode_default__lut4_0.lut4_0_.lut4_mux_0_.mux_l3_in_0_.TGATE_0_.scs8hd_ebufn_2/Z
+ _627_/Y ltile_clb_0.ltile_clb_fle_1.ltile_clb_n1_lut4__ble4_0.logical_tile_clb_mode_default__fle_mode_n1_lut4__ble4_mode_default__lut4_0.lut4_0_.lut4_mux_0_.INVTX1_16_.scs8hd_inv_1/A
+ vgnd vpwr scs8hd_ebufn_2
XFILLER_31_315 vgnd vpwr scs8hd_decap_4
XFILLER_43_164 vpwr vgnd scs8hd_fill_2
XFILLER_43_175 vpwr vgnd scs8hd_fill_2
XPHY_340 vgnd vpwr scs8hd_tapvpwrvgnd_1
XPHY_351 vgnd vpwr scs8hd_tapvpwrvgnd_1
XPHY_362 vgnd vpwr scs8hd_tapvpwrvgnd_1
XPHY_373 vgnd vpwr scs8hd_tapvpwrvgnd_1
XPHY_384 vgnd vpwr scs8hd_tapvpwrvgnd_1
XPHY_395 vgnd vpwr scs8hd_tapvpwrvgnd_1
XANTENNA_ltile_clb_0.mux_fle_3_in_0.INVTX1_6_.scs8hd_inv_1_A bottom_width_0_height_0__pin_6_
+ vgnd vpwr scs8hd_diode_2
XFILLER_6_56 vgnd vpwr scs8hd_decap_12
Xltile_clb_0.mux_fle_1_in_0.INVTX1_13_.scs8hd_inv_1 right_width_0_height_0__pin_13_
+ ltile_clb_0.mux_fle_1_in_0.INVTX1_13_.scs8hd_inv_1/Y vgnd vpwr scs8hd_inv_1
XANTENNA_ltile_clb_0.mux_fle_3_in_2.mux_l1_in_1_.TGATE_2_.scs8hd_ebufn_2_A ltile_clb_0.mux_fle_3_in_2.INVTX1_6_.scs8hd_inv_1/Y
+ vgnd vpwr scs8hd_diode_2
XFILLER_13_3 vgnd vpwr scs8hd_decap_12
XANTENNA_ltile_clb_0.ltile_clb_fle_1.ltile_clb_n1_lut4__ble4_0.logical_tile_clb_mode_default__fle_mode_n1_lut4__ble4_mode_default__lut4_0.lut4_0_.lut4_mux_0_.INVTX1_7_.scs8hd_inv_1_A
+ ltile_clb_0.ltile_clb_fle_1.ltile_clb_n1_lut4__ble4_0.logical_tile_clb_mode_default__fle_mode_n1_lut4__ble4_mode_default__lut4_0.lut4_LATCH_mem.LATCH_7_.latch/Q
+ vgnd vpwr scs8hd_diode_2
XFILLER_66_267 vpwr vgnd scs8hd_fill_2
XANTENNA_ltile_clb_0.ltile_clb_fle_1.ltile_clb_n1_lut4__ble4_0.logical_tile_clb_mode_default__fle_mode_n1_lut4__ble4_mode_default__lut4_0.lut4_0_.lut4_mux_0_.mux_l1_in_7_.TGATE_1_.scs8hd_ebufn_2_TEB
+ _620_/Y vgnd vpwr scs8hd_diode_2
XFILLER_19_161 vpwr vgnd scs8hd_fill_2
XFILLER_47_470 vpwr vgnd scs8hd_fill_2
XFILLER_62_484 vgnd vpwr scs8hd_decap_8
Xltile_clb_0.ltile_clb_fle_2.ltile_clb_n1_lut4__ble4_0.mux_ble4_out_0.mux_l1_in_0_.TGATE_0_.scs8hd_ebufn_2
+ ltile_clb_0.ltile_clb_fle_2.ltile_clb_n1_lut4__ble4_0.mux_ble4_out_0.INVTX1_0_.scs8hd_inv_1/Y
+ ltile_clb_0.ltile_clb_fle_2.ltile_clb_n1_lut4__ble4_0.mem_ble4_out_0.LATCH_0_.latch/Q
+ ltile_clb_0.ltile_clb_fle_2.ltile_clb_n1_lut4__ble4_0.mux_ble4_out_0.tap_buf4_0_.scs8hd_inv_1/A
+ vgnd vpwr scs8hd_ebufn_2
XFILLER_34_175 vgnd vpwr scs8hd_decap_8
XFILLER_62_495 vgnd vpwr scs8hd_decap_12
XFILLER_22_326 vgnd vpwr scs8hd_decap_8
XFILLER_22_337 vgnd vpwr scs8hd_decap_8
Xltile_clb_0.mux_fle_0_in_0.INVTX1_0_.scs8hd_inv_1 top_width_0_height_0__pin_0_ ltile_clb_0.mux_fle_0_in_0.INVTX1_0_.scs8hd_inv_1/Y
+ vgnd vpwr scs8hd_inv_1
XANTENNA__307__A address[4] vgnd vpwr scs8hd_diode_2
XANTENNA_ltile_clb_0.mux_fle_1_in_0.mux_l1_in_0_.TGATE_2_.scs8hd_ebufn_2_A ltile_clb_0.mux_fle_1_in_0.INVTX1_2_.scs8hd_inv_1/Y
+ vgnd vpwr scs8hd_diode_2
XFILLER_30_370 vpwr vgnd scs8hd_fill_2
XANTENNA_ltile_clb_0.mux_fle_3_in_2.mux_l1_in_0_.TGATE_1_.scs8hd_ebufn_2_TEB ltile_clb_0.mem_fle_3_in_2.LATCH_1_.latch/Q
+ vgnd vpwr scs8hd_diode_2
XFILLER_1_208 vgnd vpwr scs8hd_decap_4
XANTENNA_ltile_clb_0.mem_fle_3_in_0.LATCH_0_.latch_SLEEPB _379_/Y vgnd vpwr scs8hd_diode_2
XANTENNA_ltile_clb_0.ltile_clb_fle_2.ltile_clb_n1_lut4__ble4_0.logical_tile_clb_mode_default__fle_mode_n1_lut4__ble4_mode_default__lut4_0.lut4_0_.lut4_mux_0_.mux_l1_in_1_.TGATE_0_.scs8hd_ebufn_2_TEB
+ _613_/Y vgnd vpwr scs8hd_diode_2
Xltile_clb_0.ltile_clb_fle_0.ltile_clb_n1_lut4__ble4_0.logical_tile_clb_mode_default__fle_mode_n1_lut4__ble4_mode_default__lut4_0.lut4_0_.lut4_mux_0_.INVTX1_1_.scs8hd_inv_1
+ ltile_clb_0.ltile_clb_fle_0.ltile_clb_n1_lut4__ble4_0.logical_tile_clb_mode_default__fle_mode_n1_lut4__ble4_mode_default__lut4_0.lut4_LATCH_mem.LATCH_1_.latch/Q
+ ltile_clb_0.ltile_clb_fle_0.ltile_clb_n1_lut4__ble4_0.logical_tile_clb_mode_default__fle_mode_n1_lut4__ble4_mode_default__lut4_0.lut4_0_.lut4_mux_0_.INVTX1_1_.scs8hd_inv_1/Y
+ vgnd vpwr scs8hd_inv_1
XFILLER_57_245 vpwr vgnd scs8hd_fill_2
XFILLER_57_234 vgnd vpwr scs8hd_fill_1
XFILLER_72_226 vpwr vgnd scs8hd_fill_2
XFILLER_82_27 vgnd vpwr scs8hd_decap_4
XFILLER_53_451 vpwr vgnd scs8hd_fill_2
XFILLER_13_315 vpwr vgnd scs8hd_fill_2
XFILLER_13_326 vpwr vgnd scs8hd_fill_2
XFILLER_13_337 vpwr vgnd scs8hd_fill_2
XFILLER_13_348 vpwr vgnd scs8hd_fill_2
XFILLER_15_98 vgnd vpwr scs8hd_decap_12
XFILLER_40_145 vgnd vpwr scs8hd_decap_8
XANTENNA_ltile_clb_0.mux_fle_3_in_1.mux_l1_in_2_.TGATE_2_.scs8hd_ebufn_2_TEB ltile_clb_0.mem_fle_3_in_1.LATCH_2_.latch/Q
+ vgnd vpwr scs8hd_diode_2
XFILLER_31_86 vgnd vpwr scs8hd_decap_12
XANTENNA_ltile_clb_0.ltile_clb_fle_2.ltile_clb_n1_lut4__ble4_0.logical_tile_clb_mode_default__fle_mode_n1_lut4__ble4_mode_default__lut4_0.lut4_0_.lut4_mux_0_.mux_l1_in_6_.TGATE_1_.scs8hd_ebufn_2_A
+ ltile_clb_0.ltile_clb_fle_2.ltile_clb_n1_lut4__ble4_0.logical_tile_clb_mode_default__fle_mode_n1_lut4__ble4_mode_default__lut4_0.lut4_0_.lut4_mux_0_.INVTX1_13_.scs8hd_inv_1/Y
+ vgnd vpwr scs8hd_diode_2
XFILLER_0_274 vgnd vpwr scs8hd_decap_3
XFILLER_36_407 vgnd vpwr scs8hd_decap_12
XFILLER_63_204 vpwr vgnd scs8hd_fill_2
XFILLER_29_481 vgnd vpwr scs8hd_decap_4