* NGSPICE file created from grid_io_left.ext - technology: EFS8A

* Black-box entry subcircuit for scs8hd_decap_12 abstract view
.subckt scs8hd_decap_12 vgnd vpwr
.ends

* Black-box entry subcircuit for scs8hd_decap_8 abstract view
.subckt scs8hd_decap_8 vgnd vpwr
.ends

* Black-box entry subcircuit for scs8hd_diode_2 abstract view
.subckt scs8hd_diode_2 DIODE vgnd vpwr
.ends

* Black-box entry subcircuit for scs8hd_fill_1 abstract view
.subckt scs8hd_fill_1 vgnd vpwr
.ends

* Black-box entry subcircuit for scs8hd_tapvpwrvgnd_1 abstract view
.subckt scs8hd_tapvpwrvgnd_1 vgnd vpwr
.ends

* Black-box entry subcircuit for scs8hd_decap_3 abstract view
.subckt scs8hd_decap_3 vgnd vpwr
.ends

* Black-box entry subcircuit for scs8hd_decap_6 abstract view
.subckt scs8hd_decap_6 vgnd vpwr
.ends

* Black-box entry subcircuit for scs8hd_decap_4 abstract view
.subckt scs8hd_decap_4 vgnd vpwr
.ends

* Black-box entry subcircuit for scs8hd_fill_2 abstract view
.subckt scs8hd_fill_2 vpwr vgnd
.ends

* Black-box entry subcircuit for scs8hd_dfxbp_1 abstract view
.subckt scs8hd_dfxbp_1 CLK D Q QN vgnd vpwr
.ends

* Black-box entry subcircuit for scs8hd_buf_2 abstract view
.subckt scs8hd_buf_2 A X vgnd vpwr
.ends

* Black-box entry subcircuit for scs8hd_inv_1 abstract view
.subckt scs8hd_inv_1 A Y vgnd vpwr
.ends

.subckt grid_io_left ccff_head ccff_tail gfpga_pad_GPIO_A gfpga_pad_GPIO_IE gfpga_pad_GPIO_OE
+ gfpga_pad_GPIO_Y prog_clk right_width_0_height_0__pin_0_ right_width_0_height_0__pin_1_lower
+ right_width_0_height_0__pin_1_upper vpwr vgnd
XFILLER_63_39 vgnd vpwr scs8hd_decap_12
XFILLER_37_62 vgnd vpwr scs8hd_decap_12
XFILLER_37_51 vgnd vpwr scs8hd_decap_8
XFILLER_6_129 vgnd vpwr scs8hd_decap_12
XFILLER_12_32 vgnd vpwr scs8hd_decap_12
XFILLER_23_86 vgnd vpwr scs8hd_decap_12
XFILLER_23_31 vgnd vpwr scs8hd_decap_12
XFILLER_50_3 vgnd vpwr scs8hd_decap_12
XFILLER_56_117 vgnd vpwr scs8hd_decap_12
XFILLER_38_117 vgnd vpwr scs8hd_decap_12
XFILLER_45_62 vgnd vpwr scs8hd_decap_12
XFILLER_45_51 vgnd vpwr scs8hd_decap_8
XFILLER_29_74 vgnd vpwr scs8hd_decap_12
XFILLER_20_32 vgnd vpwr scs8hd_decap_12
XFILLER_6_56 vgnd vpwr scs8hd_decap_12
XFILLER_13_3 vgnd vpwr scs8hd_decap_12
XANTENNA__2__A gfpga_pad_GPIO_Y vgnd vpwr scs8hd_diode_2
XFILLER_40_145 vgnd vpwr scs8hd_fill_1
XFILLER_15_98 vgnd vpwr scs8hd_decap_12
XFILLER_31_123 vgnd vpwr scs8hd_decap_12
XFILLER_31_86 vgnd vpwr scs8hd_decap_12
XPHY_192 vgnd vpwr scs8hd_tapvpwrvgnd_1
XPHY_181 vgnd vpwr scs8hd_tapvpwrvgnd_1
XPHY_170 vgnd vpwr scs8hd_tapvpwrvgnd_1
XFILLER_22_145 vgnd vpwr scs8hd_fill_1
XFILLER_13_123 vgnd vpwr scs8hd_decap_12
XFILLER_37_74 vgnd vpwr scs8hd_decap_12
XFILLER_12_44 vgnd vpwr scs8hd_decap_12
XFILLER_53_62 vgnd vpwr scs8hd_decap_12
XFILLER_53_51 vgnd vpwr scs8hd_decap_8
XFILLER_23_43 vgnd vpwr scs8hd_decap_12
XFILLER_64_94 vgnd vpwr scs8hd_decap_12
XFILLER_23_98 vgnd vpwr scs8hd_decap_12
XFILLER_56_129 vgnd vpwr scs8hd_decap_12
XFILLER_43_3 vgnd vpwr scs8hd_decap_12
XFILLER_18_32 vgnd vpwr scs8hd_decap_12
XFILLER_61_143 vgnd vpwr scs8hd_decap_3
XFILLER_61_110 vgnd vpwr scs8hd_decap_12
XFILLER_38_129 vgnd vpwr scs8hd_decap_12
XFILLER_52_121 vgnd vpwr scs8hd_fill_1
XFILLER_29_86 vgnd vpwr scs8hd_decap_12
XFILLER_20_44 vgnd vpwr scs8hd_decap_12
XFILLER_61_62 vgnd vpwr scs8hd_decap_12
XFILLER_61_51 vgnd vpwr scs8hd_decap_8
XFILLER_45_74 vgnd vpwr scs8hd_decap_12
XFILLER_43_143 vgnd vpwr scs8hd_decap_3
XFILLER_43_110 vgnd vpwr scs8hd_decap_12
XFILLER_6_68 vgnd vpwr scs8hd_decap_12
XFILLER_25_143 vgnd vpwr scs8hd_decap_3
XFILLER_25_110 vgnd vpwr scs8hd_decap_12
XFILLER_31_135 vgnd vpwr scs8hd_decap_8
XFILLER_31_98 vgnd vpwr scs8hd_decap_12
XPHY_193 vgnd vpwr scs8hd_tapvpwrvgnd_1
XPHY_182 vgnd vpwr scs8hd_tapvpwrvgnd_1
XPHY_160 vgnd vpwr scs8hd_tapvpwrvgnd_1
XPHY_171 vgnd vpwr scs8hd_tapvpwrvgnd_1
XFILLER_26_32 vgnd vpwr scs8hd_decap_12
XFILLER_13_135 vgnd vpwr scs8hd_decap_8
XFILLER_10_105 vgnd vpwr scs8hd_decap_12
XFILLER_12_56 vgnd vpwr scs8hd_decap_12
XFILLER_53_74 vgnd vpwr scs8hd_decap_12
XFILLER_37_86 vgnd vpwr scs8hd_decap_12
XFILLER_23_55 vgnd vpwr scs8hd_decap_6
XFILLER_3_3 vgnd vpwr scs8hd_decap_12
XFILLER_2_145 vgnd vpwr scs8hd_fill_1
XFILLER_0_15 vgnd vpwr scs8hd_decap_8
XFILLER_36_3 vgnd vpwr scs8hd_decap_12
XFILLER_34_32 vgnd vpwr scs8hd_decap_12
XFILLER_18_44 vgnd vpwr scs8hd_decap_12
XFILLER_59_62 vgnd vpwr scs8hd_decap_12
XFILLER_59_51 vgnd vpwr scs8hd_decap_8
XFILLER_46_141 vgnd vpwr scs8hd_decap_4
XFILLER_20_56 vgnd vpwr scs8hd_decap_12
XFILLER_61_74 vgnd vpwr scs8hd_decap_12
XFILLER_45_86 vgnd vpwr scs8hd_decap_12
XFILLER_29_98 vgnd vpwr scs8hd_decap_12
XFILLER_28_141 vgnd vpwr scs8hd_decap_4
XPHY_194 vgnd vpwr scs8hd_tapvpwrvgnd_1
XPHY_183 vgnd vpwr scs8hd_tapvpwrvgnd_1
XPHY_150 vgnd vpwr scs8hd_tapvpwrvgnd_1
XPHY_161 vgnd vpwr scs8hd_tapvpwrvgnd_1
XPHY_172 vgnd vpwr scs8hd_tapvpwrvgnd_1
XFILLER_42_32 vgnd vpwr scs8hd_decap_12
XFILLER_26_44 vgnd vpwr scs8hd_decap_12
XFILLER_3_59 vpwr vgnd scs8hd_fill_2
XFILLER_3_15 vgnd vpwr scs8hd_decap_12
XFILLER_10_117 vgnd vpwr scs8hd_decap_12
XFILLER_12_68 vgnd vpwr scs8hd_decap_12
XFILLER_53_86 vgnd vpwr scs8hd_decap_12
XFILLER_37_98 vgnd vpwr scs8hd_decap_12
XFILLER_5_110 vgnd vpwr scs8hd_decap_12
XFILLER_5_143 vgnd vpwr scs8hd_decap_3
XFILLER_4_80 vgnd vpwr scs8hd_decap_12
XFILLER_0_27 vpwr vgnd scs8hd_fill_2
XFILLER_64_63 vgnd vpwr scs8hd_decap_12
XFILLER_29_3 vgnd vpwr scs8hd_decap_12
XFILLER_34_44 vgnd vpwr scs8hd_decap_12
XFILLER_18_56 vgnd vpwr scs8hd_decap_12
XFILLER_61_123 vgnd vpwr scs8hd_decap_12
XFILLER_59_74 vgnd vpwr scs8hd_decap_12
XFILLER_50_32 vgnd vpwr scs8hd_decap_12
XFILLER_61_86 vgnd vpwr scs8hd_decap_12
XFILLER_45_98 vgnd vpwr scs8hd_decap_12
XFILLER_43_123 vgnd vpwr scs8hd_decap_12
XFILLER_6_15 vgnd vpwr scs8hd_decap_12
XFILLER_20_68 vgnd vpwr scs8hd_decap_12
XFILLER_34_145 vgnd vpwr scs8hd_fill_1
XFILLER_25_123 vgnd vpwr scs8hd_decap_12
XPHY_195 vgnd vpwr scs8hd_tapvpwrvgnd_1
XPHY_184 vgnd vpwr scs8hd_tapvpwrvgnd_1
XPHY_140 vgnd vpwr scs8hd_tapvpwrvgnd_1
XPHY_151 vgnd vpwr scs8hd_tapvpwrvgnd_1
XFILLER_11_3 vgnd vpwr scs8hd_decap_12
XPHY_162 vgnd vpwr scs8hd_tapvpwrvgnd_1
XFILLER_16_145 vgnd vpwr scs8hd_fill_1
XPHY_173 vgnd vpwr scs8hd_tapvpwrvgnd_1
XFILLER_26_56 vgnd vpwr scs8hd_decap_12
XFILLER_42_44 vgnd vpwr scs8hd_decap_12
XFILLER_3_27 vgnd vpwr scs8hd_decap_12
XFILLER_59_3 vgnd vpwr scs8hd_decap_12
XFILLER_8_141 vgnd vpwr scs8hd_decap_4
XFILLER_10_129 vgnd vpwr scs8hd_decap_12
XFILLER_53_98 vgnd vpwr scs8hd_decap_12
XFILLER_48_32 vgnd vpwr scs8hd_decap_12
XFILLER_64_75 vgnd vpwr scs8hd_decap_12
XFILLER_9_15 vgnd vpwr scs8hd_decap_12
XFILLER_9_59 vpwr vgnd scs8hd_fill_2
XFILLER_55_143 vgnd vpwr scs8hd_decap_3
XFILLER_55_110 vgnd vpwr scs8hd_decap_12
XFILLER_18_68 vgnd vpwr scs8hd_decap_12
XFILLER_61_135 vgnd vpwr scs8hd_decap_8
XFILLER_59_86 vgnd vpwr scs8hd_decap_12
XFILLER_50_44 vgnd vpwr scs8hd_decap_12
XFILLER_34_56 vgnd vpwr scs8hd_decap_12
XFILLER_41_3 vgnd vpwr scs8hd_decap_12
XFILLER_37_143 vgnd vpwr scs8hd_decap_3
XFILLER_37_110 vgnd vpwr scs8hd_decap_12
XFILLER_61_98 vgnd vpwr scs8hd_decap_12
XFILLER_43_135 vgnd vpwr scs8hd_decap_8
XFILLER_6_27 vgnd vpwr scs8hd_decap_4
XFILLER_10_80 vgnd vpwr scs8hd_decap_12
XFILLER_19_110 vgnd vpwr scs8hd_decap_12
XFILLER_19_143 vgnd vpwr scs8hd_decap_3
XFILLER_40_105 vgnd vpwr scs8hd_decap_12
XFILLER_25_135 vgnd vpwr scs8hd_decap_8
XANTENNA_logical_tile_io_mode_io__0.logical_tile_io_mode_physical__iopad_0.GPIO_scs8hd_dfxbp_1_mem.scs8hd_dfxbp_1_0__CLK
+ prog_clk vgnd vpwr scs8hd_diode_2
XFILLER_56_32 vgnd vpwr scs8hd_decap_12
XPHY_196 vgnd vpwr scs8hd_tapvpwrvgnd_1
XPHY_185 vgnd vpwr scs8hd_tapvpwrvgnd_1
XPHY_174 vgnd vpwr scs8hd_tapvpwrvgnd_1
XPHY_141 vgnd vpwr scs8hd_tapvpwrvgnd_1
XPHY_130 vgnd vpwr scs8hd_tapvpwrvgnd_1
XPHY_152 vgnd vpwr scs8hd_tapvpwrvgnd_1
XPHY_163 vgnd vpwr scs8hd_tapvpwrvgnd_1
XFILLER_22_105 vgnd vpwr scs8hd_decap_12
XFILLER_42_56 vgnd vpwr scs8hd_decap_12
XFILLER_26_68 vgnd vpwr scs8hd_decap_12
XFILLER_3_39 vgnd vpwr scs8hd_decap_12
XFILLER_12_15 vgnd vpwr scs8hd_decap_12
XFILLER_5_123 vgnd vpwr scs8hd_decap_12
XFILLER_4_93 vgnd vpwr scs8hd_decap_12
XFILLER_64_87 vgnd vpwr scs8hd_decap_6
XFILLER_64_32 vgnd vpwr scs8hd_decap_12
XFILLER_58_141 vgnd vpwr scs8hd_decap_4
XFILLER_48_44 vgnd vpwr scs8hd_decap_12
XFILLER_9_27 vgnd vpwr scs8hd_decap_12
XFILLER_59_98 vgnd vpwr scs8hd_decap_12
XFILLER_50_56 vgnd vpwr scs8hd_decap_12
XFILLER_34_68 vgnd vpwr scs8hd_decap_12
XFILLER_1_3 vgnd vpwr scs8hd_decap_12
XFILLER_34_3 vgnd vpwr scs8hd_decap_12
XFILLER_20_15 vgnd vpwr scs8hd_decap_12
XFILLER_40_117 vgnd vpwr scs8hd_decap_12
XFILLER_15_15 vgnd vpwr scs8hd_decap_12
XFILLER_15_59 vpwr vgnd scs8hd_fill_2
XPHY_120 vgnd vpwr scs8hd_decap_3
XFILLER_56_44 vgnd vpwr scs8hd_decap_12
XPHY_197 vgnd vpwr scs8hd_tapvpwrvgnd_1
XPHY_186 vgnd vpwr scs8hd_tapvpwrvgnd_1
XPHY_175 vgnd vpwr scs8hd_tapvpwrvgnd_1
XPHY_131 vgnd vpwr scs8hd_tapvpwrvgnd_1
XPHY_142 vgnd vpwr scs8hd_tapvpwrvgnd_1
XPHY_153 vgnd vpwr scs8hd_tapvpwrvgnd_1
XPHY_164 vgnd vpwr scs8hd_tapvpwrvgnd_1
XFILLER_22_117 vgnd vpwr scs8hd_decap_12
XPHY_0 vgnd vpwr scs8hd_decap_3
XFILLER_42_68 vgnd vpwr scs8hd_decap_12
XFILLER_16_80 vgnd vpwr scs8hd_decap_12
XFILLER_12_27 vgnd vpwr scs8hd_decap_4
XFILLER_5_135 vgnd vpwr scs8hd_decap_8
XFILLER_64_3 vgnd vpwr scs8hd_decap_12
XFILLER_64_44 vgnd vpwr scs8hd_decap_12
XFILLER_48_56 vgnd vpwr scs8hd_decap_12
XFILLER_2_105 vgnd vpwr scs8hd_decap_12
XFILLER_9_39 vgnd vpwr scs8hd_decap_12
XFILLER_64_145 vgnd vpwr scs8hd_fill_1
XFILLER_55_123 vgnd vpwr scs8hd_decap_12
XFILLER_50_68 vgnd vpwr scs8hd_decap_12
XFILLER_46_145 vgnd vpwr scs8hd_fill_1
XFILLER_27_3 vgnd vpwr scs8hd_decap_12
XFILLER_24_80 vgnd vpwr scs8hd_decap_12
XFILLER_52_126 vgnd vpwr scs8hd_decap_12
XFILLER_37_123 vgnd vpwr scs8hd_decap_12
XFILLER_28_145 vgnd vpwr scs8hd_fill_1
XFILLER_1_62 vgnd vpwr scs8hd_decap_12
XFILLER_1_51 vgnd vpwr scs8hd_decap_8
XFILLER_20_27 vgnd vpwr scs8hd_decap_4
XFILLER_10_93 vgnd vpwr scs8hd_decap_12
XFILLER_19_123 vgnd vpwr scs8hd_decap_12
XFILLER_40_129 vgnd vpwr scs8hd_decap_12
XFILLER_15_27 vgnd vpwr scs8hd_decap_12
XPHY_121 vgnd vpwr scs8hd_decap_3
XFILLER_56_56 vgnd vpwr scs8hd_decap_12
XPHY_110 vgnd vpwr scs8hd_decap_3
XPHY_198 vgnd vpwr scs8hd_tapvpwrvgnd_1
XFILLER_31_59 vpwr vgnd scs8hd_fill_2
XFILLER_31_15 vgnd vpwr scs8hd_decap_12
XPHY_187 vgnd vpwr scs8hd_tapvpwrvgnd_1
XPHY_176 vgnd vpwr scs8hd_tapvpwrvgnd_1
XPHY_132 vgnd vpwr scs8hd_tapvpwrvgnd_1
XPHY_143 vgnd vpwr scs8hd_tapvpwrvgnd_1
XPHY_154 vgnd vpwr scs8hd_tapvpwrvgnd_1
XPHY_165 vgnd vpwr scs8hd_tapvpwrvgnd_1
XFILLER_22_129 vgnd vpwr scs8hd_decap_12
XPHY_1 vgnd vpwr scs8hd_decap_3
XFILLER_26_15 vgnd vpwr scs8hd_decap_12
XFILLER_32_80 vgnd vpwr scs8hd_decap_12
XFILLER_57_3 vgnd vpwr scs8hd_decap_12
XFILLER_64_56 vgnd vpwr scs8hd_decap_6
XFILLER_48_68 vgnd vpwr scs8hd_decap_12
XFILLER_2_117 vgnd vpwr scs8hd_decap_12
XFILLER_49_110 vgnd vpwr scs8hd_decap_12
XFILLER_55_135 vgnd vpwr scs8hd_decap_8
XFILLER_34_15 vgnd vpwr scs8hd_decap_12
XFILLER_40_80 vgnd vpwr scs8hd_decap_12
XFILLER_52_138 vgnd vpwr scs8hd_decap_8
XFILLER_52_105 vgnd vpwr scs8hd_decap_12
XFILLER_37_135 vgnd vpwr scs8hd_decap_8
XFILLER_29_15 vgnd vpwr scs8hd_decap_12
XFILLER_1_74 vgnd vpwr scs8hd_decap_12
XFILLER_29_59 vpwr vgnd scs8hd_fill_2
XFILLER_34_105 vgnd vpwr scs8hd_decap_12
XFILLER_19_135 vgnd vpwr scs8hd_decap_8
XFILLER_56_68 vgnd vpwr scs8hd_decap_12
XPHY_100 vgnd vpwr scs8hd_decap_3
XFILLER_31_27 vgnd vpwr scs8hd_decap_12
XFILLER_15_39 vgnd vpwr scs8hd_decap_12
XFILLER_16_105 vgnd vpwr scs8hd_decap_12
XPHY_122 vgnd vpwr scs8hd_decap_3
XPHY_111 vgnd vpwr scs8hd_decap_3
XPHY_199 vgnd vpwr scs8hd_tapvpwrvgnd_1
XPHY_188 vgnd vpwr scs8hd_tapvpwrvgnd_1
XPHY_177 vgnd vpwr scs8hd_tapvpwrvgnd_1
XPHY_133 vgnd vpwr scs8hd_tapvpwrvgnd_1
XPHY_2 vgnd vpwr scs8hd_decap_3
XPHY_144 vgnd vpwr scs8hd_tapvpwrvgnd_1
XPHY_155 vgnd vpwr scs8hd_tapvpwrvgnd_1
XPHY_166 vgnd vpwr scs8hd_tapvpwrvgnd_1
XFILLER_42_15 vgnd vpwr scs8hd_decap_12
XFILLER_30_141 vgnd vpwr scs8hd_decap_4
XFILLER_26_27 vgnd vpwr scs8hd_decap_4
XFILLER_7_51 vgnd vpwr scs8hd_decap_8
XFILLER_7_62 vgnd vpwr scs8hd_decap_12
XFILLER_8_145 vgnd vpwr scs8hd_fill_1
XFILLER_12_141 vgnd vpwr scs8hd_decap_4
XFILLER_16_93 vgnd vpwr scs8hd_decap_12
XFILLER_37_59 vpwr vgnd scs8hd_fill_2
XFILLER_37_15 vgnd vpwr scs8hd_decap_12
XFILLER_2_129 vgnd vpwr scs8hd_decap_12
XFILLER_64_125 vgnd vpwr scs8hd_decap_12
XFILLER_38_80 vgnd vpwr scs8hd_decap_12
XFILLER_34_27 vgnd vpwr scs8hd_decap_4
XFILLER_50_15 vgnd vpwr scs8hd_decap_12
XFILLER_24_93 vgnd vpwr scs8hd_decap_12
XFILLER_52_117 vgnd vpwr scs8hd_decap_4
XFILLER_1_86 vgnd vpwr scs8hd_decap_12
XFILLER_45_59 vpwr vgnd scs8hd_fill_2
XFILLER_45_15 vgnd vpwr scs8hd_decap_12
XFILLER_29_27 vgnd vpwr scs8hd_decap_12
XFILLER_34_117 vgnd vpwr scs8hd_decap_12
XFILLER_32_3 vgnd vpwr scs8hd_decap_12
XFILLER_31_39 vgnd vpwr scs8hd_decap_12
XPHY_123 vgnd vpwr scs8hd_decap_3
XPHY_112 vgnd vpwr scs8hd_decap_3
XPHY_101 vgnd vpwr scs8hd_decap_3
XPHY_189 vgnd vpwr scs8hd_tapvpwrvgnd_1
XPHY_178 vgnd vpwr scs8hd_tapvpwrvgnd_1
XPHY_134 vgnd vpwr scs8hd_tapvpwrvgnd_1
XPHY_145 vgnd vpwr scs8hd_tapvpwrvgnd_1
XPHY_156 vgnd vpwr scs8hd_tapvpwrvgnd_1
XFILLER_16_117 vgnd vpwr scs8hd_decap_12
XPHY_167 vgnd vpwr scs8hd_tapvpwrvgnd_1
XFILLER_46_80 vgnd vpwr scs8hd_decap_12
XPHY_3 vgnd vpwr scs8hd_decap_3
XFILLER_7_74 vgnd vpwr scs8hd_decap_12
XFILLER_42_27 vgnd vpwr scs8hd_decap_4
XFILLER_32_93 vgnd vpwr scs8hd_decap_12
XFILLER_53_59 vpwr vgnd scs8hd_fill_2
XFILLER_53_15 vgnd vpwr scs8hd_decap_12
XFILLER_37_27 vgnd vpwr scs8hd_decap_12
XFILLER_48_15 vgnd vpwr scs8hd_decap_12
XFILLER_58_145 vgnd vpwr scs8hd_fill_1
XFILLER_49_145 vgnd vpwr scs8hd_fill_1
XFILLER_49_123 vpwr vgnd scs8hd_fill_2
XFILLER_13_51 vgnd vpwr scs8hd_decap_8
XFILLER_13_62 vgnd vpwr scs8hd_decap_12
XFILLER_64_137 vgnd vpwr scs8hd_decap_8
XFILLER_62_3 vgnd vpwr scs8hd_decap_12
XFILLER_54_80 vgnd vpwr scs8hd_decap_12
XFILLER_50_27 vgnd vpwr scs8hd_decap_4
XFILLER_40_93 vgnd vpwr scs8hd_decap_12
XFILLER_1_98 vgnd vpwr scs8hd_decap_12
XFILLER_61_59 vpwr vgnd scs8hd_fill_2
XFILLER_61_15 vgnd vpwr scs8hd_decap_12
XFILLER_45_27 vgnd vpwr scs8hd_decap_12
XFILLER_29_39 vgnd vpwr scs8hd_decap_12
XFILLER_34_129 vgnd vpwr scs8hd_decap_12
XFILLER_25_3 vgnd vpwr scs8hd_decap_12
XPHY_124 vgnd vpwr scs8hd_decap_3
XPHY_113 vgnd vpwr scs8hd_decap_3
XFILLER_56_15 vgnd vpwr scs8hd_decap_12
XPHY_102 vgnd vpwr scs8hd_decap_3
XPHY_179 vgnd vpwr scs8hd_tapvpwrvgnd_1
XFILLER_21_62 vgnd vpwr scs8hd_decap_12
XPHY_135 vgnd vpwr scs8hd_tapvpwrvgnd_1
XPHY_146 vgnd vpwr scs8hd_tapvpwrvgnd_1
XPHY_157 vgnd vpwr scs8hd_tapvpwrvgnd_1
XFILLER_16_129 vgnd vpwr scs8hd_decap_12
XPHY_168 vgnd vpwr scs8hd_tapvpwrvgnd_1
XFILLER_62_80 vgnd vpwr scs8hd_decap_12
XPHY_4 vgnd vpwr scs8hd_decap_3
XFILLER_7_86 vgnd vpwr scs8hd_decap_12
XFILLER_21_143 vgnd vpwr scs8hd_decap_3
XFILLER_21_110 vgnd vpwr scs8hd_decap_12
XFILLER_53_27 vgnd vpwr scs8hd_decap_12
XFILLER_37_39 vgnd vpwr scs8hd_decap_12
XFILLER_23_19 vgnd vpwr scs8hd_decap_12
XFILLER_4_32 vgnd vpwr scs8hd_decap_12
XFILLER_64_15 vgnd vpwr scs8hd_decap_12
XFILLER_48_27 vgnd vpwr scs8hd_decap_4
XFILLER_13_74 vgnd vpwr scs8hd_decap_12
XFILLER_55_3 vgnd vpwr scs8hd_decap_12
XFILLER_38_93 vgnd vpwr scs8hd_decap_12
XFILLER_59_59 vpwr vgnd scs8hd_fill_2
XFILLER_59_15 vgnd vpwr scs8hd_decap_12
XFILLER_46_105 vgnd vpwr scs8hd_decap_12
XFILLER_18_19 vgnd vpwr scs8hd_decap_12
XFILLER_60_141 vgnd vpwr scs8hd_decap_4
XFILLER_45_39 vgnd vpwr scs8hd_decap_12
XFILLER_28_105 vgnd vpwr scs8hd_decap_12
XFILLER_61_27 vgnd vpwr scs8hd_decap_12
XFILLER_42_141 vgnd vpwr scs8hd_decap_4
XFILLER_19_51 vgnd vpwr scs8hd_decap_8
XFILLER_19_62 vgnd vpwr scs8hd_decap_12
XPHY_125 vgnd vpwr scs8hd_decap_3
XPHY_114 vgnd vpwr scs8hd_decap_3
XFILLER_56_27 vgnd vpwr scs8hd_decap_4
XPHY_103 vgnd vpwr scs8hd_decap_3
XFILLER_24_141 vgnd vpwr scs8hd_decap_4
XFILLER_21_74 vgnd vpwr scs8hd_decap_12
XPHY_136 vgnd vpwr scs8hd_tapvpwrvgnd_1
XPHY_147 vgnd vpwr scs8hd_tapvpwrvgnd_1
XPHY_158 vgnd vpwr scs8hd_tapvpwrvgnd_1
XPHY_169 vgnd vpwr scs8hd_tapvpwrvgnd_1
XFILLER_46_93 vgnd vpwr scs8hd_decap_12
XPHY_5 vgnd vpwr scs8hd_decap_3
XFILLER_7_98 vgnd vpwr scs8hd_decap_12
XFILLER_53_39 vgnd vpwr scs8hd_decap_12
XFILLER_27_62 vgnd vpwr scs8hd_decap_12
XFILLER_27_51 vgnd vpwr scs8hd_decap_8
XFILLER_4_44 vgnd vpwr scs8hd_decap_12
XFILLER_64_27 vgnd vpwr scs8hd_decap_4
XFILLER_13_86 vgnd vpwr scs8hd_decap_12
XFILLER_64_106 vgnd vpwr scs8hd_decap_12
XFILLER_54_93 vgnd vpwr scs8hd_decap_12
XFILLER_1_143 vgnd vpwr scs8hd_decap_3
XFILLER_1_110 vgnd vpwr scs8hd_decap_12
XFILLER_59_27 vgnd vpwr scs8hd_decap_12
XFILLER_48_3 vgnd vpwr scs8hd_decap_12
XFILLER_46_117 vgnd vpwr scs8hd_decap_12
XFILLER_28_117 vgnd vpwr scs8hd_decap_12
Xlogical_tile_io_mode_io__0.logical_tile_io_mode_physical__iopad_0.GPIO_scs8hd_dfxbp_1_mem.scs8hd_dfxbp_1_0_
+ prog_clk ccff_head ccff_tail logical_tile_io_mode_io__0.logical_tile_io_mode_physical__iopad_0.GPIO_scs8hd_dfxbp_1_mem.scs8hd_dfxbp_1_0_/QN
+ vgnd vpwr scs8hd_dfxbp_1
XFILLER_61_39 vgnd vpwr scs8hd_decap_12
XFILLER_35_51 vgnd vpwr scs8hd_decap_8
XFILLER_10_32 vgnd vpwr scs8hd_decap_12
XFILLER_19_74 vgnd vpwr scs8hd_decap_12
XFILLER_35_62 vgnd vpwr scs8hd_decap_12
XPHY_126 vgnd vpwr scs8hd_decap_3
XPHY_115 vgnd vpwr scs8hd_decap_3
XPHY_104 vgnd vpwr scs8hd_decap_3
XPHY_137 vgnd vpwr scs8hd_tapvpwrvgnd_1
XPHY_148 vgnd vpwr scs8hd_tapvpwrvgnd_1
XPHY_159 vgnd vpwr scs8hd_tapvpwrvgnd_1
XFILLER_62_93 vgnd vpwr scs8hd_decap_12
XFILLER_30_145 vgnd vpwr scs8hd_fill_1
XFILLER_21_86 vgnd vpwr scs8hd_decap_12
XPHY_6 vgnd vpwr scs8hd_decap_3
XFILLER_30_3 vgnd vpwr scs8hd_decap_12
XFILLER_21_123 vgnd vpwr scs8hd_decap_12
XFILLER_8_105 vgnd vpwr scs8hd_decap_12
XFILLER_12_145 vgnd vpwr scs8hd_fill_1
XFILLER_43_62 vgnd vpwr scs8hd_decap_12
XFILLER_43_51 vgnd vpwr scs8hd_decap_8
XFILLER_27_74 vgnd vpwr scs8hd_decap_12
XFILLER_4_141 vgnd vpwr scs8hd_decap_4
XFILLER_4_56 vgnd vpwr scs8hd_decap_12
XANTENNA__0__A right_width_0_height_0__pin_0_ vgnd vpwr scs8hd_diode_2
XFILLER_64_118 vgnd vpwr scs8hd_decap_6
XFILLER_8_3 vgnd vpwr scs8hd_decap_12
XFILLER_13_98 vgnd vpwr scs8hd_decap_12
XFILLER_59_39 vgnd vpwr scs8hd_decap_12
XFILLER_46_129 vgnd vpwr scs8hd_decap_12
XFILLER_60_3 vgnd vpwr scs8hd_decap_12
XFILLER_51_110 vgnd vpwr scs8hd_decap_12
XFILLER_28_129 vgnd vpwr scs8hd_decap_12
XFILLER_10_44 vgnd vpwr scs8hd_decap_12
XFILLER_51_62 vgnd vpwr scs8hd_decap_12
XFILLER_51_51 vgnd vpwr scs8hd_decap_8
XFILLER_35_74 vgnd vpwr scs8hd_decap_12
XFILLER_19_86 vgnd vpwr scs8hd_decap_12
XPHY_116 vgnd vpwr scs8hd_decap_3
XPHY_105 vgnd vpwr scs8hd_decap_3
XFILLER_33_143 vgnd vpwr scs8hd_decap_3
XFILLER_33_110 vgnd vpwr scs8hd_decap_12
XPHY_127 vgnd vpwr scs8hd_decap_3
XFILLER_21_98 vgnd vpwr scs8hd_decap_12
XFILLER_21_10 vgnd vpwr scs8hd_decap_12
XPHY_7 vgnd vpwr scs8hd_decap_3
XPHY_138 vgnd vpwr scs8hd_tapvpwrvgnd_1
XPHY_149 vgnd vpwr scs8hd_tapvpwrvgnd_1
XFILLER_15_110 vgnd vpwr scs8hd_decap_12
XFILLER_15_143 vgnd vpwr scs8hd_decap_3
XFILLER_23_3 vpwr vgnd scs8hd_fill_2
XFILLER_21_135 vgnd vpwr scs8hd_decap_8
XANTENNA__3__A gfpga_pad_GPIO_Y vgnd vpwr scs8hd_diode_2
XFILLER_8_117 vgnd vpwr scs8hd_decap_12
XFILLER_16_32 vgnd vpwr scs8hd_decap_12
XFILLER_43_74 vgnd vpwr scs8hd_decap_12
XFILLER_27_86 vgnd vpwr scs8hd_decap_12
XFILLER_4_68 vgnd vpwr scs8hd_decap_12
XFILLER_58_105 vgnd vpwr scs8hd_decap_12
XFILLER_49_127 vgnd vpwr scs8hd_decap_12
XFILLER_1_123 vgnd vpwr scs8hd_decap_12
XFILLER_54_141 vgnd vpwr scs8hd_decap_4
XFILLER_24_32 vgnd vpwr scs8hd_decap_12
XFILLER_53_3 vgnd vpwr scs8hd_decap_12
XFILLER_49_62 vgnd vpwr scs8hd_decap_12
XFILLER_49_51 vgnd vpwr scs8hd_decap_8
XFILLER_36_141 vgnd vpwr scs8hd_decap_4
XFILLER_10_56 vgnd vpwr scs8hd_decap_12
XFILLER_51_74 vgnd vpwr scs8hd_decap_12
XFILLER_35_86 vgnd vpwr scs8hd_decap_12
XFILLER_19_98 vgnd vpwr scs8hd_decap_12
XFILLER_18_141 vgnd vpwr scs8hd_decap_4
XPHY_128 vgnd vpwr scs8hd_decap_3
XPHY_117 vgnd vpwr scs8hd_decap_3
XPHY_106 vgnd vpwr scs8hd_decap_3
XFILLER_21_22 vgnd vpwr scs8hd_decap_12
XPHY_139 vgnd vpwr scs8hd_tapvpwrvgnd_1
XPHY_8 vgnd vpwr scs8hd_decap_3
XFILLER_16_3 vgnd vpwr scs8hd_decap_12
XFILLER_16_44 vgnd vpwr scs8hd_decap_12
XFILLER_57_62 vgnd vpwr scs8hd_decap_12
XFILLER_57_51 vgnd vpwr scs8hd_decap_8
XFILLER_32_32 vgnd vpwr scs8hd_decap_12
XFILLER_8_129 vgnd vpwr scs8hd_decap_12
XFILLER_43_86 vgnd vpwr scs8hd_decap_12
XFILLER_27_98 vgnd vpwr scs8hd_decap_12
XFILLER_58_117 vgnd vpwr scs8hd_decap_12
XFILLER_49_139 vgnd vpwr scs8hd_decap_6
XFILLER_1_135 vgnd vpwr scs8hd_decap_8
XFILLER_60_145 vgnd vpwr scs8hd_fill_1
XFILLER_49_74 vgnd vpwr scs8hd_decap_12
XFILLER_40_32 vgnd vpwr scs8hd_decap_12
XFILLER_24_44 vgnd vpwr scs8hd_decap_12
XFILLER_1_59 vpwr vgnd scs8hd_fill_2
XFILLER_1_15 vgnd vpwr scs8hd_decap_12
XFILLER_51_145 vgnd vpwr scs8hd_fill_1
XFILLER_51_123 vpwr vgnd scs8hd_fill_2
XFILLER_46_3 vgnd vpwr scs8hd_decap_12
XFILLER_51_86 vgnd vpwr scs8hd_decap_12
XFILLER_42_145 vgnd vpwr scs8hd_fill_1
XFILLER_35_98 vgnd vpwr scs8hd_decap_12
XFILLER_10_68 vgnd vpwr scs8hd_decap_12
XFILLER_33_123 vgnd vpwr scs8hd_decap_12
XFILLER_18_7 vgnd vpwr scs8hd_decap_12
XPHY_129 vgnd vpwr scs8hd_decap_3
XPHY_118 vgnd vpwr scs8hd_decap_3
XPHY_107 vgnd vpwr scs8hd_decap_3
XFILLER_24_145 vgnd vpwr scs8hd_fill_1
XFILLER_21_34 vgnd vpwr scs8hd_decap_12
XFILLER_2_80 vgnd vpwr scs8hd_decap_12
XPHY_9 vgnd vpwr scs8hd_decap_3
XFILLER_15_123 vgnd vpwr scs8hd_decap_12
XFILLER_57_74 vgnd vpwr scs8hd_decap_12
XFILLER_32_44 vgnd vpwr scs8hd_decap_12
XFILLER_16_56 vgnd vpwr scs8hd_decap_12
XFILLER_43_98 vgnd vpwr scs8hd_decap_12
XFILLER_4_15 vgnd vpwr scs8hd_decap_12
XFILLER_58_129 vgnd vpwr scs8hd_decap_12
XFILLER_38_32 vgnd vpwr scs8hd_decap_12
XFILLER_63_143 vgnd vpwr scs8hd_decap_3
XFILLER_63_110 vgnd vpwr scs8hd_decap_12
XFILLER_49_86 vgnd vpwr scs8hd_decap_12
XFILLER_45_143 vgnd vpwr scs8hd_decap_3
XFILLER_45_110 vgnd vpwr scs8hd_decap_12
XFILLER_40_44 vgnd vpwr scs8hd_decap_12
XFILLER_24_56 vgnd vpwr scs8hd_decap_12
XFILLER_1_27 vgnd vpwr scs8hd_decap_12
XFILLER_6_3 vgnd vpwr scs8hd_decap_12
XFILLER_39_3 vgnd vpwr scs8hd_decap_12
XFILLER_27_143 vgnd vpwr scs8hd_decap_3
XFILLER_27_110 vgnd vpwr scs8hd_decap_12
XFILLER_51_98 vgnd vpwr scs8hd_decap_12
XFILLER_33_135 vgnd vpwr scs8hd_decap_8
XPHY_119 vgnd vpwr scs8hd_decap_3
XPHY_108 vgnd vpwr scs8hd_decap_3
XFILLER_21_46 vgnd vpwr scs8hd_decap_12
XFILLER_46_32 vgnd vpwr scs8hd_decap_12
XFILLER_30_105 vgnd vpwr scs8hd_decap_12
XFILLER_7_15 vgnd vpwr scs8hd_decap_12
XFILLER_7_59 vpwr vgnd scs8hd_fill_2
XFILLER_15_135 vgnd vpwr scs8hd_decap_8
XFILLER_57_86 vgnd vpwr scs8hd_decap_12
XFILLER_32_56 vgnd vpwr scs8hd_decap_12
XFILLER_12_105 vgnd vpwr scs8hd_decap_12
XFILLER_16_68 vgnd vpwr scs8hd_decap_12
XFILLER_8_80 vgnd vpwr scs8hd_decap_12
XFILLER_4_145 vgnd vpwr scs8hd_fill_1
XFILLER_4_27 vgnd vpwr scs8hd_decap_4
XFILLER_54_32 vgnd vpwr scs8hd_decap_12
XFILLER_38_44 vgnd vpwr scs8hd_decap_12
XFILLER_48_141 vgnd vpwr scs8hd_decap_4
XFILLER_49_98 vgnd vpwr scs8hd_decap_12
XFILLER_40_56 vgnd vpwr scs8hd_decap_12
XFILLER_24_68 vgnd vpwr scs8hd_decap_12
XFILLER_1_39 vgnd vpwr scs8hd_decap_12
XFILLER_10_15 vgnd vpwr scs8hd_decap_12
XPHY_109 vgnd vpwr scs8hd_decap_3
XFILLER_51_3 vgnd vpwr scs8hd_decap_12
XFILLER_2_93 vgnd vpwr scs8hd_decap_12
XFILLER_62_32 vgnd vpwr scs8hd_decap_12
XFILLER_46_44 vgnd vpwr scs8hd_decap_12
XFILLER_30_117 vgnd vpwr scs8hd_decap_12
XFILLER_21_58 vgnd vpwr scs8hd_decap_3
XFILLER_7_27 vgnd vpwr scs8hd_decap_12
XFILLER_23_7 vgnd vpwr scs8hd_decap_12
XFILLER_32_68 vgnd vpwr scs8hd_decap_12
XFILLER_12_117 vgnd vpwr scs8hd_decap_12
XFILLER_57_98 vgnd vpwr scs8hd_decap_12
XFILLER_7_110 vgnd vpwr scs8hd_decap_12
XFILLER_7_143 vgnd vpwr scs8hd_decap_3
XFILLER_14_3 vgnd vpwr scs8hd_decap_12
XFILLER_13_15 vgnd vpwr scs8hd_decap_12
XFILLER_54_44 vgnd vpwr scs8hd_decap_12
XFILLER_38_56 vgnd vpwr scs8hd_decap_12
XFILLER_13_59 vpwr vgnd scs8hd_fill_2
XFILLER_63_123 vgnd vpwr scs8hd_decap_12
XFILLER_54_145 vgnd vpwr scs8hd_fill_1
XFILLER_40_68 vgnd vpwr scs8hd_decap_12
XFILLER_45_123 vgnd vpwr scs8hd_decap_12
XFILLER_14_80 vgnd vpwr scs8hd_decap_12
XFILLER_36_145 vgnd vpwr scs8hd_fill_1
XFILLER_10_27 vgnd vpwr scs8hd_decap_4
XFILLER_27_123 vgnd vpwr scs8hd_decap_12
XFILLER_18_145 vgnd vpwr scs8hd_fill_1
XPHY_90 vgnd vpwr scs8hd_decap_3
XFILLER_44_3 vgnd vpwr scs8hd_decap_12
XFILLER_62_44 vgnd vpwr scs8hd_decap_12
XFILLER_46_56 vgnd vpwr scs8hd_decap_12
XFILLER_30_129 vgnd vpwr scs8hd_decap_12
XFILLER_7_39 vgnd vpwr scs8hd_decap_12
XFILLER_12_129 vgnd vpwr scs8hd_decap_12
XFILLER_16_15 vgnd vpwr scs8hd_decap_12
XFILLER_22_80 vgnd vpwr scs8hd_decap_12
XFILLER_8_93 vgnd vpwr scs8hd_decap_12
XANTENNA_logical_tile_io_mode_io__0.logical_tile_io_mode_physical__iopad_0.GPIO_0_.ie_oe_inv_A
+ ccff_tail vgnd vpwr scs8hd_diode_2
XPHY_260 vgnd vpwr scs8hd_tapvpwrvgnd_1
XFILLER_57_143 vgnd vpwr scs8hd_decap_3
XFILLER_57_110 vgnd vpwr scs8hd_decap_12
XFILLER_54_56 vgnd vpwr scs8hd_decap_12
XFILLER_38_68 vgnd vpwr scs8hd_decap_12
XFILLER_13_27 vgnd vpwr scs8hd_decap_12
XFILLER_63_135 vgnd vpwr scs8hd_decap_8
XFILLER_39_143 vgnd vpwr scs8hd_decap_3
XFILLER_39_110 vgnd vpwr scs8hd_decap_12
XFILLER_60_105 vgnd vpwr scs8hd_decap_12
XFILLER_45_135 vgnd vpwr scs8hd_decap_8
XFILLER_51_127 vgnd vpwr scs8hd_decap_12
XFILLER_30_80 vgnd vpwr scs8hd_decap_12
X_3_ gfpga_pad_GPIO_Y right_width_0_height_0__pin_1_upper vgnd vpwr scs8hd_buf_2
XFILLER_42_105 vgnd vpwr scs8hd_decap_12
XFILLER_27_135 vgnd vpwr scs8hd_decap_8
XFILLER_4_3 vgnd vpwr scs8hd_decap_12
XFILLER_19_15 vgnd vpwr scs8hd_decap_12
XFILLER_19_59 vpwr vgnd scs8hd_fill_2
XPHY_91 vgnd vpwr scs8hd_decap_3
XPHY_80 vgnd vpwr scs8hd_decap_3
XFILLER_37_3 vgnd vpwr scs8hd_decap_12
XFILLER_46_68 vgnd vpwr scs8hd_decap_12
XFILLER_24_105 vgnd vpwr scs8hd_decap_12
XFILLER_62_56 vgnd vpwr scs8hd_decap_12
XFILLER_32_15 vgnd vpwr scs8hd_decap_12
XFILLER_16_27 vgnd vpwr scs8hd_decap_4
XFILLER_20_141 vgnd vpwr scs8hd_decap_4
XFILLER_7_123 vgnd vpwr scs8hd_decap_12
XFILLER_21_6 vpwr vgnd scs8hd_fill_2
XFILLER_27_59 vpwr vgnd scs8hd_fill_2
XFILLER_27_15 vgnd vpwr scs8hd_decap_12
XPHY_261 vgnd vpwr scs8hd_tapvpwrvgnd_1
XPHY_250 vgnd vpwr scs8hd_tapvpwrvgnd_1
XFILLER_13_39 vgnd vpwr scs8hd_decap_12
XFILLER_54_68 vgnd vpwr scs8hd_decap_12
XFILLER_28_80 vgnd vpwr scs8hd_decap_12
XFILLER_5_51 vgnd vpwr scs8hd_decap_8
XFILLER_5_62 vgnd vpwr scs8hd_decap_12
XFILLER_60_117 vgnd vpwr scs8hd_decap_12
XFILLER_40_15 vgnd vpwr scs8hd_decap_12
XFILLER_51_139 vgnd vpwr scs8hd_decap_6
XFILLER_14_93 vgnd vpwr scs8hd_decap_12
XFILLER_42_117 vgnd vpwr scs8hd_decap_12
XFILLER_35_59 vpwr vgnd scs8hd_fill_2
XFILLER_35_15 vgnd vpwr scs8hd_decap_12
XFILLER_19_27 vgnd vpwr scs8hd_decap_12
X_2_ gfpga_pad_GPIO_Y right_width_0_height_0__pin_1_lower vgnd vpwr scs8hd_buf_2
XPHY_92 vgnd vpwr scs8hd_decap_3
XPHY_81 vgnd vpwr scs8hd_decap_3
XPHY_70 vgnd vpwr scs8hd_decap_3
XFILLER_24_117 vgnd vpwr scs8hd_decap_12
XFILLER_62_68 vgnd vpwr scs8hd_decap_12
XFILLER_36_80 vgnd vpwr scs8hd_decap_12
XFILLER_32_27 vgnd vpwr scs8hd_decap_4
XFILLER_22_93 vgnd vpwr scs8hd_decap_12
XFILLER_7_135 vgnd vpwr scs8hd_decap_8
XFILLER_43_59 vpwr vgnd scs8hd_fill_2
XFILLER_43_15 vgnd vpwr scs8hd_decap_12
XFILLER_27_27 vgnd vpwr scs8hd_decap_12
XFILLER_4_105 vgnd vpwr scs8hd_decap_12
XPHY_262 vgnd vpwr scs8hd_tapvpwrvgnd_1
XPHY_251 vgnd vpwr scs8hd_tapvpwrvgnd_1
XPHY_240 vgnd vpwr scs8hd_tapvpwrvgnd_1
XFILLER_12_3 vgnd vpwr scs8hd_decap_12
XFILLER_57_123 vgnd vpwr scs8hd_decap_12
XFILLER_38_15 vgnd vpwr scs8hd_decap_12
XFILLER_48_145 vgnd vpwr scs8hd_fill_1
XFILLER_44_80 vgnd vpwr scs8hd_decap_12
XFILLER_39_123 vgnd vpwr scs8hd_decap_12
XFILLER_5_74 vgnd vpwr scs8hd_decap_12
XFILLER_40_27 vgnd vpwr scs8hd_decap_4
XFILLER_60_129 vgnd vpwr scs8hd_decap_12
XFILLER_30_93 vgnd vpwr scs8hd_decap_12
XFILLER_51_59 vpwr vgnd scs8hd_fill_2
XFILLER_51_15 vgnd vpwr scs8hd_decap_12
XFILLER_42_129 vgnd vpwr scs8hd_decap_12
XFILLER_35_27 vgnd vpwr scs8hd_decap_12
XFILLER_19_39 vgnd vpwr scs8hd_decap_12
XPHY_93 vgnd vpwr scs8hd_decap_3
XPHY_82 vgnd vpwr scs8hd_decap_3
XPHY_71 vgnd vpwr scs8hd_decap_3
XPHY_60 vgnd vpwr scs8hd_decap_3
X_1_ ccff_tail gfpga_pad_GPIO_IE vgnd vpwr scs8hd_buf_2
XFILLER_24_129 vgnd vpwr scs8hd_decap_12
XFILLER_46_15 vgnd vpwr scs8hd_decap_12
XFILLER_11_51 vgnd vpwr scs8hd_decap_8
XFILLER_11_62 vgnd vpwr scs8hd_decap_12
XFILLER_52_80 vgnd vpwr scs8hd_decap_12
XFILLER_42_3 vgnd vpwr scs8hd_decap_12
XFILLER_11_110 vgnd vpwr scs8hd_decap_12
XFILLER_11_143 vgnd vpwr scs8hd_decap_3
XFILLER_43_27 vgnd vpwr scs8hd_decap_12
XFILLER_27_39 vgnd vpwr scs8hd_decap_12
XPHY_263 vgnd vpwr scs8hd_tapvpwrvgnd_1
XPHY_252 vgnd vpwr scs8hd_tapvpwrvgnd_1
XPHY_241 vgnd vpwr scs8hd_tapvpwrvgnd_1
XPHY_230 vgnd vpwr scs8hd_tapvpwrvgnd_1
XFILLER_4_117 vgnd vpwr scs8hd_decap_12
XFILLER_57_135 vgnd vpwr scs8hd_decap_8
XFILLER_54_15 vgnd vpwr scs8hd_decap_12
XFILLER_38_27 vgnd vpwr scs8hd_decap_4
XFILLER_60_80 vgnd vpwr scs8hd_decap_12
XFILLER_28_93 vgnd vpwr scs8hd_decap_12
XFILLER_5_86 vgnd vpwr scs8hd_decap_12
XFILLER_54_105 vgnd vpwr scs8hd_decap_12
XFILLER_49_59 vpwr vgnd scs8hd_fill_2
XFILLER_49_15 vgnd vpwr scs8hd_decap_12
XFILLER_39_135 vgnd vpwr scs8hd_decap_8
XFILLER_36_105 vgnd vpwr scs8hd_decap_12
XFILLER_35_39 vgnd vpwr scs8hd_decap_12
XFILLER_51_27 vgnd vpwr scs8hd_decap_12
XPHY_94 vgnd vpwr scs8hd_decap_3
XPHY_83 vgnd vpwr scs8hd_decap_3
XPHY_72 vgnd vpwr scs8hd_decap_3
XPHY_61 vgnd vpwr scs8hd_decap_3
XPHY_50 vgnd vpwr scs8hd_decap_3
X_0_ right_width_0_height_0__pin_0_ gfpga_pad_GPIO_A vgnd vpwr scs8hd_buf_2
XFILLER_18_105 vgnd vpwr scs8hd_decap_12
XFILLER_32_141 vgnd vpwr scs8hd_decap_4
XFILLER_2_32 vgnd vpwr scs8hd_decap_12
XFILLER_62_15 vgnd vpwr scs8hd_decap_12
XFILLER_46_27 vgnd vpwr scs8hd_decap_4
XFILLER_36_93 vgnd vpwr scs8hd_decap_12
XFILLER_2_3 vgnd vpwr scs8hd_decap_12
XFILLER_11_74 vgnd vpwr scs8hd_decap_12
XFILLER_14_141 vgnd vpwr scs8hd_decap_4
XFILLER_57_15 vgnd vpwr scs8hd_decap_12
XFILLER_35_3 vgnd vpwr scs8hd_decap_12
XFILLER_57_59 vpwr vgnd scs8hd_fill_2