* NGSPICE file created from grid_io_bottom.ext - technology: EFS8A

* Black-box entry subcircuit for scs8hd_decap_8 abstract view
.subckt scs8hd_decap_8 vgnd vpwr
.ends

* Black-box entry subcircuit for scs8hd_decap_12 abstract view
.subckt scs8hd_decap_12 vgnd vpwr
.ends

* Black-box entry subcircuit for scs8hd_decap_4 abstract view
.subckt scs8hd_decap_4 vgnd vpwr
.ends

* Black-box entry subcircuit for scs8hd_decap_6 abstract view
.subckt scs8hd_decap_6 vgnd vpwr
.ends

* Black-box entry subcircuit for scs8hd_tapvpwrvgnd_1 abstract view
.subckt scs8hd_tapvpwrvgnd_1 vgnd vpwr
.ends

* Black-box entry subcircuit for scs8hd_fill_2 abstract view
.subckt scs8hd_fill_2 vpwr vgnd
.ends

* Black-box entry subcircuit for scs8hd_decap_3 abstract view
.subckt scs8hd_decap_3 vgnd vpwr
.ends

* Black-box entry subcircuit for scs8hd_diode_2 abstract view
.subckt scs8hd_diode_2 DIODE vgnd vpwr
.ends

* Black-box entry subcircuit for scs8hd_fill_1 abstract view
.subckt scs8hd_fill_1 vgnd vpwr
.ends

* Black-box entry subcircuit for scs8hd_ebufn_1 abstract view
.subckt scs8hd_ebufn_1 A TEB Z vgnd vpwr
.ends

* Black-box entry subcircuit for scs8hd_lpflow_inputisolatch_1 abstract view
.subckt scs8hd_lpflow_inputisolatch_1 D Q SLEEPB vgnd vpwr
.ends

* Black-box entry subcircuit for scs8hd_and4_4 abstract view
.subckt scs8hd_and4_4 A B C D X vgnd vpwr
.ends

* Black-box entry subcircuit for scs8hd_inv_8 abstract view
.subckt scs8hd_inv_8 A Y vgnd vpwr
.ends

* Black-box entry subcircuit for scs8hd_buf_2 abstract view
.subckt scs8hd_buf_2 A X vgnd vpwr
.ends

* Black-box entry subcircuit for scs8hd_buf_1 abstract view
.subckt scs8hd_buf_1 A X vgnd vpwr
.ends

* Black-box entry subcircuit for scs8hd_nor4_4 abstract view
.subckt scs8hd_nor4_4 A B C D Y vgnd vpwr
.ends

.subckt grid_io_bottom address[0] address[1] address[2] address[3] data_in enable
+ gfpga_pad_GPIO_PAD[0] gfpga_pad_GPIO_PAD[1] gfpga_pad_GPIO_PAD[2] gfpga_pad_GPIO_PAD[3]
+ gfpga_pad_GPIO_PAD[4] gfpga_pad_GPIO_PAD[5] gfpga_pad_GPIO_PAD[6] gfpga_pad_GPIO_PAD[7]
+ top_width_0_height_0__pin_0_ top_width_0_height_0__pin_10_ top_width_0_height_0__pin_11_
+ top_width_0_height_0__pin_12_ top_width_0_height_0__pin_13_ top_width_0_height_0__pin_14_
+ top_width_0_height_0__pin_15_ top_width_0_height_0__pin_1_ top_width_0_height_0__pin_2_
+ top_width_0_height_0__pin_3_ top_width_0_height_0__pin_4_ top_width_0_height_0__pin_5_
+ top_width_0_height_0__pin_6_ top_width_0_height_0__pin_7_ top_width_0_height_0__pin_8_
+ top_width_0_height_0__pin_9_ vpwr vgnd
XFILLER_7_1880 vgnd vpwr scs8hd_decap_8
XFILLER_3_2489 vgnd vpwr scs8hd_decap_12
XFILLER_3_1733 vgnd vpwr scs8hd_decap_12
XFILLER_8_3057 vgnd vpwr scs8hd_decap_12
XFILLER_8_2301 vgnd vpwr scs8hd_decap_12
XFILLER_8_2345 vgnd vpwr scs8hd_decap_4
XFILLER_8_1666 vgnd vpwr scs8hd_decap_12
XFILLER_5_3978 vgnd vpwr scs8hd_decap_12
XFILLER_4_1508 vgnd vpwr scs8hd_decap_12
XFILLER_3_2990 vgnd vpwr scs8hd_decap_12
XFILLER_2_1276 vgnd vpwr scs8hd_decap_12
XFILLER_9_137 vgnd vpwr scs8hd_decap_12
XFILLER_6_800 vgnd vpwr scs8hd_decap_12
XFILLER_9_2109 vgnd vpwr scs8hd_decap_12
XFILLER_9_1408 vgnd vpwr scs8hd_decap_12
XFILLER_5_354 vgnd vpwr scs8hd_decap_12
XFILLER_4_4167 vgnd vpwr scs8hd_decap_12
XFILLER_4_3411 vgnd vpwr scs8hd_decap_12
XFILLER_0_2629 vgnd vpwr scs8hd_decap_6
XFILLER_9_4012 vgnd vpwr scs8hd_decap_12
XFILLER_9_3311 vgnd vpwr scs8hd_decap_6
XFILLER_9_2698 vgnd vpwr scs8hd_decap_12
XFILLER_9_1997 vgnd vpwr scs8hd_decap_12
XFILLER_9_1931 vgnd vpwr scs8hd_decap_12
XFILLER_5_1806 vgnd vpwr scs8hd_decap_12
XPHY_905 vgnd vpwr scs8hd_tapvpwrvgnd_1
XFILLER_3_2297 vpwr vgnd scs8hd_fill_2
XFILLER_3_1574 vgnd vpwr scs8hd_decap_12
XFILLER_6_129 vgnd vpwr scs8hd_decap_12
XFILLER_8_2142 vgnd vpwr scs8hd_decap_12
XFILLER_5_4454 vgnd vpwr scs8hd_decap_12
XFILLER_1_4307 vgnd vpwr scs8hd_decap_12
XFILLER_2_324 vgnd vpwr scs8hd_decap_12
XFILLER_8_1496 vgnd vpwr scs8hd_decap_12
XFILLER_4_1349 vgnd vpwr scs8hd_decap_12
XFILLER_1_2916 vgnd vpwr scs8hd_decap_12
XFILLER_6_2838 vgnd vpwr scs8hd_decap_12
XFILLER_5_184 vgnd vpwr scs8hd_decap_12
XFILLER_4_3252 vgnd vpwr scs8hd_decap_12
XFILLER_9_3163 vgnd vpwr scs8hd_decap_12
XFILLER_9_2462 vgnd vpwr scs8hd_decap_12
XFILLER_9_490 vgnd vpwr scs8hd_decap_6
XFILLER_5_3038 vgnd vpwr scs8hd_decap_12
XFILLER_9_1761 vgnd vpwr scs8hd_decap_6
XFILLER_3_2050 vgnd vpwr scs8hd_decap_12
XFILLER_0_4384 vgnd vpwr scs8hd_decap_12
XFILLER_2_3948 vgnd vpwr scs8hd_decap_12
XPHY_768 vgnd vpwr scs8hd_tapvpwrvgnd_1
XPHY_757 vgnd vpwr scs8hd_tapvpwrvgnd_1
XPHY_746 vgnd vpwr scs8hd_tapvpwrvgnd_1
XPHY_735 vgnd vpwr scs8hd_tapvpwrvgnd_1
XPHY_724 vgnd vpwr scs8hd_tapvpwrvgnd_1
XPHY_713 vgnd vpwr scs8hd_tapvpwrvgnd_1
XPHY_702 vgnd vpwr scs8hd_tapvpwrvgnd_1
XFILLER_0_3683 vgnd vpwr scs8hd_decap_6
XPHY_779 vgnd vpwr scs8hd_tapvpwrvgnd_1
XFILLER_7_4527 vgnd vpwr scs8hd_decap_12
XFILLER_3_611 vgnd vpwr scs8hd_decap_12
XFILLER_5_4295 vgnd vpwr scs8hd_decap_12
XFILLER_2_154 vgnd vpwr scs8hd_decap_12
XFILLER_1_2746 vgnd vpwr scs8hd_decap_12
XFILLER_9_44 vgnd vpwr scs8hd_decap_12
XFILLER_6_471 vgnd vpwr scs8hd_decap_12
XFILLER_9_1079 vgnd vpwr scs8hd_decap_6
XFILLER_9_1024 vgnd vpwr scs8hd_decap_12
XFILLER_6_2679 vgnd vpwr scs8hd_decap_12
XFILLER_6_1923 vgnd vpwr scs8hd_decap_12
XFILLER_4_3082 vgnd vpwr scs8hd_decap_12
XFILLER_4_1691 vgnd vpwr scs8hd_decap_12
XFILLER_0_1544 vgnd vpwr scs8hd_decap_6
XFILLER_0_2245 vgnd vpwr scs8hd_decap_12
XFILLER_7_1709 vgnd vpwr scs8hd_decap_12
XFILLER_5_2123 vgnd vpwr scs8hd_decap_12
XFILLER_2_4424 vgnd vpwr scs8hd_decap_12
XFILLER_0_614 vgnd vpwr scs8hd_decap_6
XFILLER_5_1477 vgnd vpwr scs8hd_decap_12
XFILLER_2_3789 vgnd vpwr scs8hd_decap_12
XFILLER_8_703 vgnd vpwr scs8hd_decap_12
XPHY_598 vgnd vpwr scs8hd_tapvpwrvgnd_1
XPHY_587 vgnd vpwr scs8hd_tapvpwrvgnd_1
XPHY_576 vgnd vpwr scs8hd_tapvpwrvgnd_1
XPHY_565 vgnd vpwr scs8hd_tapvpwrvgnd_1
XPHY_554 vgnd vpwr scs8hd_tapvpwrvgnd_1
XPHY_543 vgnd vpwr scs8hd_tapvpwrvgnd_1
XPHY_532 vgnd vpwr scs8hd_tapvpwrvgnd_1
XPHY_521 vgnd vpwr scs8hd_tapvpwrvgnd_1
XPHY_510 vgnd vpwr scs8hd_tapvpwrvgnd_1
XFILLER_7_4368 vgnd vpwr scs8hd_decap_12
XFILLER_7_3612 vgnd vpwr scs8hd_decap_12
XFILLER_7_257 vgnd vpwr scs8hd_decap_12
XFILLER_3_452 vgnd vpwr scs8hd_decap_12
XFILLER_7_2977 vgnd vpwr scs8hd_decap_12
XFILLER_5_3380 vgnd vpwr scs8hd_decap_12
XFILLER_3_2819 vgnd vpwr scs8hd_decap_12
XFILLER_1_1831 vgnd vpwr scs8hd_decap_12
XFILLER_1_2587 vgnd vpwr scs8hd_decap_12
XFILLER_6_3155 vgnd vpwr scs8hd_decap_12
XFILLER_2_3008 vgnd vpwr scs8hd_decap_12
XFILLER_6_1764 vgnd vpwr scs8hd_decap_12
XFILLER_1_4490 vgnd vpwr scs8hd_decap_12
XFILLER_0_1396 vgnd vpwr scs8hd_decap_12
XFILLER_4_227 vgnd vpwr scs8hd_decap_12
XFILLER_2_4265 vgnd vpwr scs8hd_decap_12
XFILLER_1_989 vgnd vpwr scs8hd_decap_12
XFILLER_0_466 vgnd vpwr scs8hd_decap_12
XFILLER_2_2874 vgnd vpwr scs8hd_decap_12
XFILLER_8_544 vgnd vpwr scs8hd_decap_12
XPHY_395 vgnd vpwr scs8hd_tapvpwrvgnd_1
XPHY_384 vgnd vpwr scs8hd_tapvpwrvgnd_1
XPHY_373 vgnd vpwr scs8hd_tapvpwrvgnd_1
XPHY_362 vgnd vpwr scs8hd_tapvpwrvgnd_1
XPHY_351 vgnd vpwr scs8hd_tapvpwrvgnd_1
XPHY_340 vgnd vpwr scs8hd_tapvpwrvgnd_1
XFILLER_7_3453 vgnd vpwr scs8hd_decap_12
XFILLER_6_56 vgnd vpwr scs8hd_decap_12
XFILLER_3_293 vgnd vpwr scs8hd_decap_12
XFILLER_3_1904 vgnd vpwr scs8hd_decap_12
XFILLER_1_2362 vgnd vpwr scs8hd_decap_8
XFILLER_1_3063 vgnd vpwr scs8hd_decap_12
XFILLER_1_1672 vgnd vpwr scs8hd_decap_12
XFILLER_8_3228 vgnd vpwr scs8hd_decap_12
XFILLER_8_1837 vgnd vpwr scs8hd_decap_4
XFILLER_6_2240 vgnd vpwr scs8hd_decap_12
XFILLER_3_4563 vgnd vpwr scs8hd_decap_12
XFILLER_1_208 vgnd vpwr scs8hd_decap_12
XFILLER_0_1160 vgnd vpwr scs8hd_decap_12
XFILLER_2_1447 vgnd vpwr scs8hd_decap_12
XFILLER_8_4485 vgnd vpwr scs8hd_decap_12
XFILLER_8_3740 vgnd vpwr scs8hd_decap_12
XFILLER_7_2026 vgnd vpwr scs8hd_decap_12
XFILLER_5_525 vgnd vpwr scs8hd_decap_12
XFILLER_4_4338 vgnd vpwr scs8hd_decap_12
XFILLER_1_720 vgnd vpwr scs8hd_decap_12
XFILLER_0_230 vgnd vpwr scs8hd_decap_12
XFILLER_4_2947 vgnd vpwr scs8hd_decap_12
XFILLER_2_3350 vgnd vpwr scs8hd_decap_12
XPHY_170 vgnd vpwr scs8hd_tapvpwrvgnd_1
XFILLER_9_3504 vgnd vpwr scs8hd_decap_12
XFILLER_9_2803 vgnd vpwr scs8hd_decap_12
XFILLER_9_831 vgnd vpwr scs8hd_decap_6
XFILLER_8_385 vgnd vpwr scs8hd_decap_12
XPHY_192 vgnd vpwr scs8hd_tapvpwrvgnd_1
XPHY_181 vgnd vpwr scs8hd_tapvpwrvgnd_1
XFILLER_9_3559 vgnd vpwr scs8hd_decap_6
XFILLER_3_3136 vgnd vpwr scs8hd_decap_12
XFILLER_7_1892 vgnd vpwr scs8hd_decap_12
XFILLER_3_1745 vgnd vpwr scs8hd_decap_12
XFILLER_8_3069 vgnd vpwr scs8hd_decap_12
XFILLER_8_2313 vgnd vpwr scs8hd_decap_12
XFILLER_6_2081 vgnd vpwr scs8hd_decap_12
XFILLER_3_4393 vgnd vpwr scs8hd_decap_12
XFILLER_2_1288 vgnd vpwr scs8hd_decap_12
XFILLER_9_149 vgnd vpwr scs8hd_decap_6
XFILLER_6_812 vgnd vpwr scs8hd_decap_12
XFILLER_8_3570 vgnd vpwr scs8hd_decap_12
XFILLER_7_1111 vgnd vpwr scs8hd_decap_12
XFILLER_4_3423 vgnd vpwr scs8hd_decap_12
XFILLER_1_550 vgnd vpwr scs8hd_decap_12
XFILLER_4_2777 vgnd vpwr scs8hd_decap_12
XFILLER_2_3191 vgnd vpwr scs8hd_decap_12
XFILLER_9_4024 vgnd vpwr scs8hd_decap_6
XFILLER_9_683 vgnd vpwr scs8hd_decap_12
XFILLER_5_3209 vgnd vpwr scs8hd_decap_12
XFILLER_9_1954 vgnd vpwr scs8hd_decap_12
XFILLER_9_1943 vgnd vpwr scs8hd_decap_8
XFILLER_5_1818 vgnd vpwr scs8hd_decap_12
XFILLER_3_2221 vgnd vpwr scs8hd_decap_12
XPHY_906 vgnd vpwr scs8hd_tapvpwrvgnd_1
XFILLER_0_3876 vgnd vpwr scs8hd_decap_12
XFILLER_8_2154 vgnd vpwr scs8hd_decap_12
XFILLER_5_4466 vgnd vpwr scs8hd_decap_12
XFILLER_1_4319 vgnd vpwr scs8hd_decap_12
XFILLER_6_642 vgnd vpwr scs8hd_decap_12
XFILLER_5_196 vgnd vpwr scs8hd_decap_12
XFILLER_1_391 vgnd vpwr scs8hd_decap_12
XFILLER_4_1862 vgnd vpwr scs8hd_decap_12
XFILLER_0_1737 vgnd vpwr scs8hd_decap_12
XFILLER_9_3175 vgnd vpwr scs8hd_decap_12
XFILLER_9_2485 vpwr vgnd scs8hd_fill_2
XFILLER_9_2474 vgnd vpwr scs8hd_decap_6
XFILLER_0_807 vgnd vpwr scs8hd_decap_12
XFILLER_5_1648 vgnd vpwr scs8hd_decap_12
XFILLER_3_2062 vgnd vpwr scs8hd_decap_12
XFILLER_0_3640 vgnd vpwr scs8hd_decap_12
XFILLER_0_4341 vgnd vpwr scs8hd_decap_12
XFILLER_0_4396 vgnd vpwr scs8hd_decap_6
XPHY_769 vgnd vpwr scs8hd_tapvpwrvgnd_1
XPHY_758 vgnd vpwr scs8hd_tapvpwrvgnd_1
XPHY_747 vgnd vpwr scs8hd_tapvpwrvgnd_1
XPHY_736 vgnd vpwr scs8hd_tapvpwrvgnd_1
XPHY_725 vgnd vpwr scs8hd_tapvpwrvgnd_1
XPHY_714 vgnd vpwr scs8hd_tapvpwrvgnd_1
XPHY_703 vgnd vpwr scs8hd_tapvpwrvgnd_1
XFILLER_7_4539 vgnd vpwr scs8hd_decap_12
XFILLER_7_428 vgnd vpwr scs8hd_decap_12
XFILLER_3_623 vgnd vpwr scs8hd_decap_12
XFILLER_5_3551 vgnd vpwr scs8hd_decap_12
XFILLER_1_3404 vgnd vpwr scs8hd_decap_12
XFILLER_1_4149 vgnd vpwr scs8hd_decap_12
XFILLER_2_166 vgnd vpwr scs8hd_decap_12
XFILLER_1_2758 vgnd vpwr scs8hd_decap_12
XFILLER_9_56 vgnd vpwr scs8hd_decap_6
XFILLER_7_940 vgnd vpwr scs8hd_decap_6
XFILLER_9_1036 vgnd vpwr scs8hd_decap_12
XFILLER_6_3326 vgnd vpwr scs8hd_decap_12
XFILLER_7_973 vgnd vpwr scs8hd_decap_3
XFILLER_6_483 vgnd vpwr scs8hd_decap_12
XFILLER_6_1935 vgnd vpwr scs8hd_decap_12
XFILLER_4_3094 vgnd vpwr scs8hd_decap_12
XFILLER_0_1501 vgnd vpwr scs8hd_decap_12
XFILLER_0_2202 vgnd vpwr scs8hd_decap_12
XFILLER_0_2257 vgnd vpwr scs8hd_decap_6
XANTENNA_logical_tile_io_mode_io__4.logical_tile_io_mode_physical__iopad_0.GPIO_LATCH_mem.LATCH_0_.latch_SLEEPB
+ _10_/X vgnd vpwr scs8hd_diode_2
XFILLER_2_4436 vgnd vpwr scs8hd_decap_12
XPHY_500 vgnd vpwr scs8hd_tapvpwrvgnd_1
XFILLER_5_1489 vgnd vpwr scs8hd_decap_12
XFILLER_0_2791 vgnd vpwr scs8hd_decap_12
XFILLER_8_715 vgnd vpwr scs8hd_decap_12
XPHY_599 vgnd vpwr scs8hd_tapvpwrvgnd_1
XPHY_588 vgnd vpwr scs8hd_tapvpwrvgnd_1
XPHY_577 vgnd vpwr scs8hd_tapvpwrvgnd_1
XPHY_566 vgnd vpwr scs8hd_tapvpwrvgnd_1
XPHY_555 vgnd vpwr scs8hd_tapvpwrvgnd_1
XPHY_544 vgnd vpwr scs8hd_tapvpwrvgnd_1
XPHY_533 vgnd vpwr scs8hd_tapvpwrvgnd_1
XPHY_522 vgnd vpwr scs8hd_tapvpwrvgnd_1
XPHY_511 vgnd vpwr scs8hd_tapvpwrvgnd_1
XFILLER_7_3624 vgnd vpwr scs8hd_decap_12
XFILLER_7_269 vgnd vpwr scs8hd_decap_12
XFILLER_4_910 vgnd vpwr scs8hd_decap_12
XFILLER_3_464 vgnd vpwr scs8hd_decap_12
XFILLER_5_3392 vgnd vpwr scs8hd_decap_12
XFILLER_1_3234 vgnd vpwr scs8hd_decap_12
XFILLER_1_1843 vgnd vpwr scs8hd_decap_12
XFILLER_1_2599 vgnd vpwr scs8hd_decap_12
XFILLER_7_781 vgnd vpwr scs8hd_decap_12
XFILLER_6_3167 vgnd vpwr scs8hd_decap_12
XFILLER_6_2411 vgnd vpwr scs8hd_decap_12
XFILLER_6_1776 vgnd vpwr scs8hd_decap_12
XFILLER_2_1618 vgnd vpwr scs8hd_decap_12
XFILLER_8_3911 vgnd vpwr scs8hd_decap_12
XFILLER_4_4509 vgnd vpwr scs8hd_decap_12
XFILLER_4_239 vgnd vpwr scs8hd_decap_12
XFILLER_9_2090 vgnd vpwr scs8hd_decap_12
XFILLER_2_4277 vgnd vpwr scs8hd_decap_12
XFILLER_0_478 vgnd vpwr scs8hd_decap_12
XFILLER_2_3521 vgnd vpwr scs8hd_decap_12
XPHY_352 vgnd vpwr scs8hd_tapvpwrvgnd_1
XPHY_341 vgnd vpwr scs8hd_tapvpwrvgnd_1
XPHY_330 vgnd vpwr scs8hd_tapvpwrvgnd_1
XFILLER_2_2886 vgnd vpwr scs8hd_decap_12
XFILLER_8_556 vgnd vpwr scs8hd_decap_12
XFILLER_7_4100 vgnd vpwr scs8hd_decap_12
XPHY_396 vgnd vpwr scs8hd_tapvpwrvgnd_1
XPHY_385 vgnd vpwr scs8hd_tapvpwrvgnd_1
XPHY_374 vgnd vpwr scs8hd_tapvpwrvgnd_1
XPHY_363 vgnd vpwr scs8hd_tapvpwrvgnd_1
XFILLER_7_3465 vgnd vpwr scs8hd_decap_12
XFILLER_6_68 vgnd vpwr scs8hd_decap_12
XFILLER_4_751 vgnd vpwr scs8hd_decap_12
XFILLER_3_3307 vgnd vpwr scs8hd_decap_12
XFILLER_3_1916 vgnd vpwr scs8hd_decap_12
XFILLER_1_3075 vgnd vpwr scs8hd_decap_12
XFILLER_1_1684 vgnd vpwr scs8hd_decap_12
XFILLER_6_2252 vgnd vpwr scs8hd_decap_12
XFILLER_0_1172 vgnd vpwr scs8hd_decap_6
XFILLER_2_1459 vgnd vpwr scs8hd_decap_12
XFILLER_5_537 vgnd vpwr scs8hd_decap_12
XFILLER_8_4497 vgnd vpwr scs8hd_decap_12
XFILLER_7_2038 vgnd vpwr scs8hd_decap_12
XFILLER_0_242 vgnd vpwr scs8hd_decap_6
XFILLER_5_1050 vgnd vpwr scs8hd_decap_12
XFILLER_2_1971 vgnd vpwr scs8hd_decap_12
XFILLER_2_3362 vgnd vpwr scs8hd_decap_12
XPHY_193 vgnd vpwr scs8hd_tapvpwrvgnd_1
XPHY_182 vgnd vpwr scs8hd_tapvpwrvgnd_1
XPHY_171 vgnd vpwr scs8hd_tapvpwrvgnd_1
XPHY_160 vgnd vpwr scs8hd_tapvpwrvgnd_1
XFILLER_9_4217 vgnd vpwr scs8hd_decap_12
XFILLER_9_3516 vgnd vpwr scs8hd_decap_12
XFILLER_9_2815 vgnd vpwr scs8hd_decap_6
XFILLER_7_3295 vgnd vpwr scs8hd_decap_12
XFILLER_7_2550 vgnd vpwr scs8hd_decap_12
XFILLER_4_581 vgnd vpwr scs8hd_decap_12
XFILLER_3_3148 vgnd vpwr scs8hd_decap_12
XFILLER_3_1757 vgnd vpwr scs8hd_decap_12
XFILLER_1_2160 vgnd vpwr scs8hd_decap_12
XFILLER_8_2325 vgnd vpwr scs8hd_decap_6
XFILLER_2_507 vgnd vpwr scs8hd_decap_12
XFILLER_8_1679 vgnd vpwr scs8hd_decap_12
XFILLER_6_2093 vgnd vpwr scs8hd_decap_12
XFILLER_9_106 vgnd vpwr scs8hd_decap_12
XFILLER_5_367 vgnd vpwr scs8hd_decap_12
XFILLER_8_3582 vgnd vpwr scs8hd_decap_12
XFILLER_7_1123 vgnd vpwr scs8hd_decap_12
XFILLER_4_3435 vgnd vpwr scs8hd_decap_12
XFILLER_1_562 vgnd vpwr scs8hd_decap_12
XFILLER_4_2789 vgnd vpwr scs8hd_decap_12
XFILLER_9_695 vgnd vpwr scs8hd_decap_12
XFILLER_9_2667 vgnd vpwr scs8hd_decap_12
XFILLER_9_1966 vgnd vpwr scs8hd_decap_12
XFILLER_7_2380 vgnd vpwr scs8hd_decap_12
XFILLER_3_2233 vgnd vpwr scs8hd_decap_12
XFILLER_0_3888 vgnd vpwr scs8hd_decap_12
XFILLER_0_4578 vgnd vpwr scs8hd_decap_3
XPHY_907 vgnd vpwr scs8hd_tapvpwrvgnd_1
XFILLER_3_1587 vgnd vpwr scs8hd_decap_12
XFILLER_9_4570 vgnd vpwr scs8hd_decap_8
XFILLER_8_1410 vgnd vpwr scs8hd_decap_12
XFILLER_5_4478 vgnd vpwr scs8hd_decap_12
XFILLER_5_3722 vgnd vpwr scs8hd_decap_12
XFILLER_4_2008 vgnd vpwr scs8hd_decap_12
XFILLER_2_337 vgnd vpwr scs8hd_decap_12
XFILLER_3_3490 vgnd vpwr scs8hd_decap_12
XFILLER_1_2929 vgnd vpwr scs8hd_decap_12
XFILLER_2_1020 vgnd vpwr scs8hd_decap_12
XFILLER_6_654 vgnd vpwr scs8hd_decap_12
XFILLER_4_3265 vgnd vpwr scs8hd_decap_12
XFILLER_4_2520 vgnd vpwr scs8hd_decap_12
XFILLER_0_2417 vgnd vpwr scs8hd_fill_1
XFILLER_4_1874 vgnd vpwr scs8hd_decap_12
XFILLER_0_1749 vgnd vpwr scs8hd_decap_12
XFILLER_9_3187 vgnd vpwr scs8hd_decap_6
XFILLER_9_3132 vgnd vpwr scs8hd_decap_12
XFILLER_9_2431 vgnd vpwr scs8hd_decap_12
XFILLER_9_1730 vgnd vpwr scs8hd_decap_6
XFILLER_5_2306 vgnd vpwr scs8hd_decap_8
XFILLER_0_819 vgnd vpwr scs8hd_decap_12
XFILLER_0_3652 vgnd vpwr scs8hd_decap_6
XFILLER_0_4353 vgnd vpwr scs8hd_decap_12
XPHY_759 vgnd vpwr scs8hd_tapvpwrvgnd_1
XPHY_748 vgnd vpwr scs8hd_tapvpwrvgnd_1
XPHY_737 vgnd vpwr scs8hd_tapvpwrvgnd_1
XPHY_726 vgnd vpwr scs8hd_tapvpwrvgnd_1
XPHY_715 vgnd vpwr scs8hd_tapvpwrvgnd_1
XPHY_704 vgnd vpwr scs8hd_tapvpwrvgnd_1
XFILLER_3_635 vgnd vpwr scs8hd_decap_12
XFILLER_3_3 vgnd vpwr scs8hd_decap_12
XFILLER_5_3563 vgnd vpwr scs8hd_decap_12
XFILLER_0_15 vgnd vpwr scs8hd_decap_12
XFILLER_2_178 vgnd vpwr scs8hd_decap_12
XFILLER_9_1048 vgnd vpwr scs8hd_decap_6
XFILLER_9_1004 vgnd vpwr scs8hd_decap_12
XFILLER_6_3338 vgnd vpwr scs8hd_decap_12
XFILLER_6_495 vgnd vpwr scs8hd_decap_12
XFILLER_2_690 vgnd vpwr scs8hd_decap_12
XFILLER_6_1947 vgnd vpwr scs8hd_decap_12
XFILLER_4_2350 vgnd vpwr scs8hd_decap_6
XFILLER_0_1513 vgnd vpwr scs8hd_decap_6
XFILLER_0_2214 vgnd vpwr scs8hd_decap_12
XFILLER_9_1582 vgnd vpwr scs8hd_decap_12
XFILLER_6_3850 vgnd vpwr scs8hd_decap_12
XFILLER_5_2136 vgnd vpwr scs8hd_decap_12
XFILLER_2_4448 vgnd vpwr scs8hd_decap_12
XPHY_534 vgnd vpwr scs8hd_tapvpwrvgnd_1
XPHY_523 vgnd vpwr scs8hd_tapvpwrvgnd_1
XPHY_512 vgnd vpwr scs8hd_tapvpwrvgnd_1
XPHY_501 vgnd vpwr scs8hd_tapvpwrvgnd_1
XFILLER_8_727 vgnd vpwr scs8hd_decap_12
XPHY_589 vgnd vpwr scs8hd_tapvpwrvgnd_1
XPHY_578 vgnd vpwr scs8hd_tapvpwrvgnd_1
XPHY_567 vgnd vpwr scs8hd_tapvpwrvgnd_1
XPHY_556 vgnd vpwr scs8hd_tapvpwrvgnd_1
XPHY_545 vgnd vpwr scs8hd_tapvpwrvgnd_1
XFILLER_7_3636 vgnd vpwr scs8hd_decap_12
XFILLER_4_922 vgnd vpwr scs8hd_decap_12
XFILLER_3_476 vgnd vpwr scs8hd_decap_12
XFILLER_8_1081 vgnd vpwr scs8hd_decap_12
XFILLER_1_3246 vgnd vpwr scs8hd_decap_12
XFILLER_1_1855 vgnd vpwr scs8hd_decap_12
XFILLER_6_3179 vgnd vpwr scs8hd_decap_12
XFILLER_6_2423 vgnd vpwr scs8hd_decap_12
XFILLER_6_1788 vgnd vpwr scs8hd_decap_12
XFILLER_4_2191 vgnd vpwr scs8hd_decap_12
XFILLER_0_1365 vgnd vpwr scs8hd_decap_12
XFILLER_5_708 vgnd vpwr scs8hd_decap_12
XFILLER_8_3923 vgnd vpwr scs8hd_decap_12
XFILLER_7_2209 vgnd vpwr scs8hd_decap_12
XFILLER_1_903 vgnd vpwr scs8hd_decap_12
XFILLER_0_435 vgnd vpwr scs8hd_decap_12
XFILLER_5_1221 vgnd vpwr scs8hd_decap_12
XFILLER_2_4289 vgnd vpwr scs8hd_decap_12
XFILLER_2_3533 vgnd vpwr scs8hd_decap_12
XPHY_386 vgnd vpwr scs8hd_tapvpwrvgnd_1
XPHY_375 vgnd vpwr scs8hd_tapvpwrvgnd_1
XPHY_364 vgnd vpwr scs8hd_tapvpwrvgnd_1
XPHY_353 vgnd vpwr scs8hd_tapvpwrvgnd_1
XPHY_342 vgnd vpwr scs8hd_tapvpwrvgnd_1
XPHY_331 vgnd vpwr scs8hd_tapvpwrvgnd_1
XPHY_320 vgnd vpwr scs8hd_tapvpwrvgnd_1
XFILLER_8_568 vgnd vpwr scs8hd_decap_12
XFILLER_7_4112 vgnd vpwr scs8hd_decap_12
XPHY_397 vgnd vpwr scs8hd_tapvpwrvgnd_1
XFILLER_7_2721 vgnd vpwr scs8hd_decap_12
XFILLER_3_3319 vgnd vpwr scs8hd_decap_12
XFILLER_3_1928 vgnd vpwr scs8hd_decap_12
XFILLER_1_1696 vgnd vpwr scs8hd_decap_12
XFILLER_1_2375 vpwr vgnd scs8hd_fill_2
XFILLER_1_3087 vgnd vpwr scs8hd_decap_12
XFILLER_6_2264 vgnd vpwr scs8hd_decap_12
XFILLER_3_4576 vgnd vpwr scs8hd_decap_4
XFILLER_3_3831 vgnd vpwr scs8hd_decap_12
XFILLER_2_2106 vgnd vpwr scs8hd_decap_12
XANTENNA__04__A address[3] vgnd vpwr scs8hd_diode_2
XFILLER_8_3753 vgnd vpwr scs8hd_decap_12
XFILLER_4_3606 vgnd vpwr scs8hd_decap_12
XFILLER_1_733 vgnd vpwr scs8hd_decap_12
XFILLER_5_1062 vgnd vpwr scs8hd_decap_12
XFILLER_2_3374 vgnd vpwr scs8hd_decap_12
XFILLER_9_800 vgnd vpwr scs8hd_decap_6
XPHY_183 vgnd vpwr scs8hd_tapvpwrvgnd_1
XPHY_172 vgnd vpwr scs8hd_tapvpwrvgnd_1
XPHY_194 vgnd vpwr scs8hd_tapvpwrvgnd_1
XPHY_150 vgnd vpwr scs8hd_tapvpwrvgnd_1
XPHY_161 vgnd vpwr scs8hd_tapvpwrvgnd_1
XFILLER_9_4229 vgnd vpwr scs8hd_decap_12
XFILLER_9_3528 vgnd vpwr scs8hd_decap_6
XFILLER_8_398 vgnd vpwr scs8hd_decap_12
XFILLER_4_593 vgnd vpwr scs8hd_decap_12
XFILLER_3_2404 vgnd vpwr scs8hd_decap_12
XFILLER_1_2172 vgnd vpwr scs8hd_decap_12
XFILLER_3_3661 vgnd vpwr scs8hd_decap_12
XFILLER_9_118 vgnd vpwr scs8hd_decap_6
XFILLER_6_825 vgnd vpwr scs8hd_decap_12
XFILLER_5_379 vgnd vpwr scs8hd_decap_12
XFILLER_8_3594 vgnd vpwr scs8hd_decap_12
XFILLER_7_1135 vgnd vpwr scs8hd_decap_12
XFILLER_3_59 vpwr vgnd scs8hd_fill_2
XFILLER_3_15 vgnd vpwr scs8hd_decap_12
XFILLER_1_574 vgnd vpwr scs8hd_decap_12
XFILLER_9_652 vgnd vpwr scs8hd_decap_12
XFILLER_9_2679 vgnd vpwr scs8hd_decap_12
XFILLER_5_891 vgnd vpwr scs8hd_decap_12
XFILLER_9_1978 vgnd vpwr scs8hd_decap_6
XFILLER_7_2392 vgnd vpwr scs8hd_decap_12
XFILLER_3_2245 vgnd vpwr scs8hd_decap_12
XFILLER_3_1599 vgnd vpwr scs8hd_decap_12
XFILLER_0_3845 vgnd vpwr scs8hd_decap_12
XPHY_908 vgnd vpwr scs8hd_tapvpwrvgnd_1
XFILLER_3_806 vgnd vpwr scs8hd_decap_12
XFILLER_8_2167 vgnd vpwr scs8hd_decap_12
XFILLER_8_1422 vgnd vpwr scs8hd_decap_12
XFILLER_5_3734 vgnd vpwr scs8hd_decap_12
XFILLER_2_349 vgnd vpwr scs8hd_decap_12
XFILLER_2_1032 vgnd vpwr scs8hd_decap_12
XFILLER_5_110 vgnd vpwr scs8hd_decap_12
XFILLER_8_4070 vgnd vpwr scs8hd_decap_12
XFILLER_6_3509 vgnd vpwr scs8hd_decap_12
XFILLER_6_666 vgnd vpwr scs8hd_decap_12
XFILLER_2_861 vgnd vpwr scs8hd_decap_12
XFILLER_4_3277 vgnd vpwr scs8hd_decap_12
XFILLER_4_1886 vgnd vpwr scs8hd_decap_12
XFILLER_0_1706 vgnd vpwr scs8hd_decap_12
Xlogical_tile_io_mode_io__4.logical_tile_io_mode_physical__iopad_0.GPIO_0_.buffer
+ top_width_0_height_0__pin_8_ logical_tile_io_mode_io__4.logical_tile_io_mode_physical__iopad_0.GPIO_0_.buffer/TEB
+ gfpga_pad_GPIO_PAD[4] vgnd vpwr scs8hd_ebufn_1
XFILLER_9_3144 vgnd vpwr scs8hd_decap_12
XFILLER_9_2443 vgnd vpwr scs8hd_decap_6
XFILLER_4_80 vgnd vpwr scs8hd_decap_12
XFILLER_0_4310 vgnd vpwr scs8hd_decap_12
XFILLER_0_4365 vgnd vpwr scs8hd_decap_6
XPHY_727 vgnd vpwr scs8hd_tapvpwrvgnd_1
XPHY_716 vgnd vpwr scs8hd_tapvpwrvgnd_1
XPHY_705 vgnd vpwr scs8hd_tapvpwrvgnd_1
XFILLER_3_2075 vgnd vpwr scs8hd_decap_12
XFILLER_3_1330 vgnd vpwr scs8hd_decap_12
XPHY_749 vgnd vpwr scs8hd_tapvpwrvgnd_1
XPHY_738 vgnd vpwr scs8hd_tapvpwrvgnd_1
XFILLER_7_3807 vgnd vpwr scs8hd_decap_12
XFILLER_5_4210 vgnd vpwr scs8hd_decap_12
XFILLER_3_647 vgnd vpwr scs8hd_decap_12
XANTENNA__12__A _10_/A vgnd vpwr scs8hd_diode_2
XFILLER_8_1252 vgnd vpwr scs8hd_decap_12
XFILLER_5_3575 vgnd vpwr scs8hd_decap_12
XFILLER_4_1105 vgnd vpwr scs8hd_decap_12
XFILLER_0_27 vgnd vpwr scs8hd_decap_4
XFILLER_1_3417 vgnd vpwr scs8hd_decap_12
XFILLER_7_953 vgnd vpwr scs8hd_decap_12
XFILLER_9_1016 vgnd vpwr scs8hd_decap_6
XFILLER_6_1959 vgnd vpwr scs8hd_decap_12
XFILLER_4_2384 vgnd vpwr scs8hd_fill_1
XFILLER_0_2226 vgnd vpwr scs8hd_decap_6
XFILLER_9_2295 vgnd vpwr scs8hd_decap_12
XFILLER_9_1594 vgnd vpwr scs8hd_decap_12
XFILLER_6_3862 vgnd vpwr scs8hd_decap_12
XFILLER_5_2148 vgnd vpwr scs8hd_decap_12
XFILLER_2_3704 vgnd vpwr scs8hd_decap_12
XPHY_568 vgnd vpwr scs8hd_tapvpwrvgnd_1
XPHY_557 vgnd vpwr scs8hd_tapvpwrvgnd_1
XPHY_546 vgnd vpwr scs8hd_tapvpwrvgnd_1
XPHY_535 vgnd vpwr scs8hd_tapvpwrvgnd_1
XPHY_524 vgnd vpwr scs8hd_tapvpwrvgnd_1
XPHY_513 vgnd vpwr scs8hd_tapvpwrvgnd_1
XPHY_502 vgnd vpwr scs8hd_tapvpwrvgnd_1
XANTENNA__07__A _13_/C vgnd vpwr scs8hd_diode_2
XFILLER_3_1160 vgnd vpwr scs8hd_decap_12
XFILLER_0_2760 vgnd vpwr scs8hd_decap_12
XFILLER_8_739 vgnd vpwr scs8hd_decap_12
XPHY_579 vgnd vpwr scs8hd_tapvpwrvgnd_1
XFILLER_4_934 vgnd vpwr scs8hd_decap_12
XFILLER_7_3648 vgnd vpwr scs8hd_decap_12
XFILLER_5_4051 vgnd vpwr scs8hd_decap_12
XFILLER_8_1093 vgnd vpwr scs8hd_decap_12
XFILLER_5_2660 vgnd vpwr scs8hd_decap_12
XFILLER_1_1867 vgnd vpwr scs8hd_decap_12
XFILLER_1_2502 vgnd vpwr scs8hd_decap_12
XFILLER_1_3258 vgnd vpwr scs8hd_decap_12
XFILLER_7_794 vgnd vpwr scs8hd_decap_12
XFILLER_6_2435 vgnd vpwr scs8hd_decap_12
XFILLER_1_3770 vgnd vpwr scs8hd_decap_12
XFILLER_0_1377 vgnd vpwr scs8hd_decap_12
XFILLER_0_2078 vgnd vpwr scs8hd_decap_12
XFILLER_6_3692 vgnd vpwr scs8hd_decap_12
XFILLER_0_447 vgnd vpwr scs8hd_decap_12
XFILLER_5_1233 vgnd vpwr scs8hd_decap_12
XFILLER_0_3280 vgnd vpwr scs8hd_decap_6
XFILLER_2_2899 vgnd vpwr scs8hd_decap_12
XFILLER_2_3545 vgnd vpwr scs8hd_decap_12
XPHY_398 vgnd vpwr scs8hd_tapvpwrvgnd_1
XPHY_387 vgnd vpwr scs8hd_tapvpwrvgnd_1
XPHY_376 vgnd vpwr scs8hd_tapvpwrvgnd_1
XPHY_365 vgnd vpwr scs8hd_tapvpwrvgnd_1
XPHY_354 vgnd vpwr scs8hd_tapvpwrvgnd_1
XPHY_343 vgnd vpwr scs8hd_tapvpwrvgnd_1
XPHY_332 vgnd vpwr scs8hd_tapvpwrvgnd_1
XPHY_321 vgnd vpwr scs8hd_tapvpwrvgnd_1
XPHY_310 vgnd vpwr scs8hd_tapvpwrvgnd_1
XFILLER_7_4124 vgnd vpwr scs8hd_decap_12
XFILLER_6_15 vgnd vpwr scs8hd_decap_12
XFILLER_4_764 vgnd vpwr scs8hd_decap_12
XFILLER_7_3478 vgnd vpwr scs8hd_decap_12
XFILLER_7_2733 vgnd vpwr scs8hd_decap_12
XFILLER_6_1008 vgnd vpwr scs8hd_decap_12
XFILLER_1_2354 vpwr vgnd scs8hd_fill_2
XFILLER_1_3099 vgnd vpwr scs8hd_decap_12
XFILLER_8_2508 vgnd vpwr scs8hd_decap_12
XFILLER_7_3990 vgnd vpwr scs8hd_decap_12
XFILLER_6_2276 vgnd vpwr scs8hd_decap_12
XFILLER_6_1520 vgnd vpwr scs8hd_decap_12
XFILLER_2_2118 vgnd vpwr scs8hd_decap_12
XFILLER_0_1141 vgnd vpwr scs8hd_decap_6
XFILLER_8_4411 vgnd vpwr scs8hd_decap_12
XANTENNA__20__A gfpga_pad_GPIO_PAD[1] vgnd vpwr scs8hd_diode_2
XFILLER_8_3765 vgnd vpwr scs8hd_decap_12
XFILLER_7_1306 vgnd vpwr scs8hd_decap_12
XFILLER_4_3618 vgnd vpwr scs8hd_decap_12
XFILLER_1_745 vgnd vpwr scs8hd_decap_12
XFILLER_0_211 vgnd vpwr scs8hd_decap_6
XFILLER_2_2630 vgnd vpwr scs8hd_decap_12
XFILLER_2_4021 vgnd vpwr scs8hd_decap_12
XFILLER_5_1074 vgnd vpwr scs8hd_decap_12
XFILLER_2_1984 vgnd vpwr scs8hd_decap_12
XFILLER_8_300 vgnd vpwr scs8hd_decap_12
XPHY_184 vgnd vpwr scs8hd_tapvpwrvgnd_1
XPHY_173 vgnd vpwr scs8hd_tapvpwrvgnd_1
XPHY_195 vgnd vpwr scs8hd_tapvpwrvgnd_1
XPHY_140 vgnd vpwr scs8hd_tapvpwrvgnd_1
XPHY_151 vgnd vpwr scs8hd_tapvpwrvgnd_1
XPHY_162 vgnd vpwr scs8hd_tapvpwrvgnd_1
XFILLER_7_2563 vgnd vpwr scs8hd_decap_12
XFILLER_3_2416 vgnd vpwr scs8hd_decap_12
XFILLER_1_2184 vgnd vpwr scs8hd_decap_12
XFILLER_5_3905 vgnd vpwr scs8hd_decap_12
XFILLER_3_3673 vgnd vpwr scs8hd_decap_12
XFILLER_6_1361 vgnd vpwr scs8hd_decap_12
XFILLER_2_1203 vgnd vpwr scs8hd_decap_12
XFILLER_6_837 vgnd vpwr scs8hd_decap_12
XANTENNA__15__A address[1] vgnd vpwr scs8hd_diode_2
XFILLER_8_4241 vgnd vpwr scs8hd_decap_12
XFILLER_8_2850 vgnd vpwr scs8hd_decap_12
XFILLER_3_27 vgnd vpwr scs8hd_decap_12
XFILLER_7_1147 vgnd vpwr scs8hd_decap_12
XFILLER_4_3448 vgnd vpwr scs8hd_decap_12
XFILLER_4_2703 vgnd vpwr scs8hd_decap_12
XFILLER_1_586 vgnd vpwr scs8hd_decap_12
XFILLER_9_664 vgnd vpwr scs8hd_decap_12
XFILLER_8_141 vgnd vpwr scs8hd_decap_12
XFILLER_9_2636 vgnd vpwr scs8hd_decap_12
XFILLER_4_3960 vgnd vpwr scs8hd_decap_12
XFILLER_0_4558 vgnd vpwr scs8hd_decap_12
XPHY_909 vgnd vpwr scs8hd_tapvpwrvgnd_1
XFILLER_3_1501 vgnd vpwr scs8hd_decap_12
XFILLER_0_3857 vgnd vpwr scs8hd_decap_12
XFILLER_3_818 vgnd vpwr scs8hd_decap_12
XFILLER_8_2179 vgnd vpwr scs8hd_decap_12
XFILLER_6_1191 vgnd vpwr scs8hd_decap_12
XFILLER_5_3746 vgnd vpwr scs8hd_decap_12
XFILLER_2_1044 vgnd vpwr scs8hd_decap_12
XFILLER_6_678 vgnd vpwr scs8hd_decap_12
XFILLER_8_4082 vgnd vpwr scs8hd_decap_12
XFILLER_8_2691 vgnd vpwr scs8hd_decap_12
XFILLER_2_873 vgnd vpwr scs8hd_decap_12
XFILLER_4_3289 vgnd vpwr scs8hd_decap_12
XFILLER_4_2533 vgnd vpwr scs8hd_decap_12
XFILLER_4_1898 vgnd vpwr scs8hd_decap_12
XFILLER_0_1718 vgnd vpwr scs8hd_decap_12
XFILLER_0_2419 vgnd vpwr scs8hd_decap_12
XFILLER_9_3156 vgnd vpwr scs8hd_decap_6
XFILLER_9_3101 vgnd vpwr scs8hd_decap_12
XFILLER_9_2400 vgnd vpwr scs8hd_decap_12
XFILLER_5_2319 vgnd vpwr scs8hd_decap_4
Xlogical_tile_io_mode_io__3.logical_tile_io_mode_physical__iopad_0.GPIO_LATCH_mem.LATCH_0_.latch
+ data_in logical_tile_io_mode_io__3.logical_tile_io_mode_physical__iopad_0.GPIO_0_.buffer/TEB
+ _12_/Y vgnd vpwr scs8hd_lpflow_inputisolatch_1
XFILLER_0_3621 vgnd vpwr scs8hd_decap_6
XFILLER_0_4322 vgnd vpwr scs8hd_decap_12
XPHY_739 vgnd vpwr scs8hd_tapvpwrvgnd_1
XPHY_728 vgnd vpwr scs8hd_tapvpwrvgnd_1
XPHY_717 vgnd vpwr scs8hd_tapvpwrvgnd_1
XPHY_706 vgnd vpwr scs8hd_tapvpwrvgnd_1
XFILLER_3_2087 vgnd vpwr scs8hd_decap_12
XANTENNA__12__B _11_/Y vgnd vpwr scs8hd_diode_2
XFILLER_9_3690 vgnd vpwr scs8hd_decap_12
XFILLER_7_3819 vgnd vpwr scs8hd_decap_12
XFILLER_5_4222 vgnd vpwr scs8hd_decap_12
XFILLER_5_2831 vgnd vpwr scs8hd_decap_12
XFILLER_3_659 vgnd vpwr scs8hd_decap_12
XFILLER_8_1264 vgnd vpwr scs8hd_decap_12
XFILLER_5_3587 vgnd vpwr scs8hd_decap_12
XFILLER_4_1117 vgnd vpwr scs8hd_decap_12
XFILLER_1_3429 vgnd vpwr scs8hd_decap_12
XFILLER_9_15 vgnd vpwr scs8hd_decap_12
XFILLER_7_965 vgnd vpwr scs8hd_decap_8
XFILLER_6_2606 vgnd vpwr scs8hd_decap_12
XFILLER_1_3941 vgnd vpwr scs8hd_decap_12
XFILLER_9_280 vgnd vpwr scs8hd_decap_12
XFILLER_9_1551 vgnd vpwr scs8hd_decap_12
XFILLER_5_1404 vgnd vpwr scs8hd_decap_12
XFILLER_3_1172 vgnd vpwr scs8hd_decap_12
XFILLER_0_3473 vgnd vpwr scs8hd_decap_12
XFILLER_2_3716 vgnd vpwr scs8hd_decap_12
XPHY_569 vgnd vpwr scs8hd_tapvpwrvgnd_1
XPHY_558 vgnd vpwr scs8hd_tapvpwrvgnd_1
XPHY_547 vgnd vpwr scs8hd_tapvpwrvgnd_1
XPHY_536 vgnd vpwr scs8hd_tapvpwrvgnd_1
XPHY_525 vgnd vpwr scs8hd_tapvpwrvgnd_1
XPHY_514 vgnd vpwr scs8hd_tapvpwrvgnd_1
XPHY_503 vgnd vpwr scs8hd_tapvpwrvgnd_1
XANTENNA__07__B address[2] vgnd vpwr scs8hd_diode_2
XFILLER_0_2772 vgnd vpwr scs8hd_decap_12
XANTENNA__23__A gfpga_pad_GPIO_PAD[4] vgnd vpwr scs8hd_diode_2
XFILLER_7_2904 vgnd vpwr scs8hd_decap_12
XFILLER_5_4063 vgnd vpwr scs8hd_decap_12
XFILLER_5_2672 vgnd vpwr scs8hd_decap_12
XFILLER_3_489 vgnd vpwr scs8hd_decap_12
XFILLER_1_2514 vgnd vpwr scs8hd_decap_12
XFILLER_1_1879 vgnd vpwr scs8hd_decap_12
XFILLER_6_2447 vgnd vpwr scs8hd_decap_12
XFILLER_0_1389 vgnd vpwr scs8hd_decap_6
XFILLER_0_1334 vgnd vpwr scs8hd_decap_12
XFILLER_9_2071 vgnd vpwr scs8hd_decap_6
XFILLER_8_3936 vgnd vpwr scs8hd_decap_12
XFILLER_6_4350 vgnd vpwr scs8hd_decap_12
XFILLER_1_916 vgnd vpwr scs8hd_decap_12
XFILLER_0_459 vgnd vpwr scs8hd_decap_6
XFILLER_0_404 vgnd vpwr scs8hd_decap_12
XFILLER_2_2801 vgnd vpwr scs8hd_decap_12
XFILLER_2_3557 vgnd vpwr scs8hd_decap_12
XANTENNA__18__A gfpga_pad_GPIO_PAD[7] vgnd vpwr scs8hd_diode_2
XFILLER_5_1245 vgnd vpwr scs8hd_decap_12
XPHY_300 vgnd vpwr scs8hd_tapvpwrvgnd_1
XPHY_399 vgnd vpwr scs8hd_tapvpwrvgnd_1
XPHY_388 vgnd vpwr scs8hd_tapvpwrvgnd_1
XPHY_377 vgnd vpwr scs8hd_tapvpwrvgnd_1
XPHY_366 vgnd vpwr scs8hd_tapvpwrvgnd_1
XPHY_355 vgnd vpwr scs8hd_tapvpwrvgnd_1