* NGSPICE file created from grid_clb.ext - technology: sky130A

* Black-box entry subcircuit for sky130_fd_sc_hd__buf_2 abstract view
.subckt sky130_fd_sc_hd__buf_2 A X VGND VNB VPB VPWR
.ends

* Black-box entry subcircuit for sky130_fd_sc_hd__dfxtp_1 abstract view
.subckt sky130_fd_sc_hd__dfxtp_1 D Q CLK VGND VNB VPB VPWR
.ends

* Black-box entry subcircuit for sky130_fd_sc_hd__mux2_1 abstract view
.subckt sky130_fd_sc_hd__mux2_1 A0 A1 S X VGND VNB VPB VPWR
.ends

* Black-box entry subcircuit for sky130_fd_sc_hd__fill_1 abstract view
.subckt sky130_fd_sc_hd__fill_1 VGND VNB VPB VPWR
.ends

* Black-box entry subcircuit for sky130_fd_sc_hd__decap_6 abstract view
.subckt sky130_fd_sc_hd__decap_6 VGND VNB VPB VPWR
.ends

* Black-box entry subcircuit for sky130_fd_sc_hd__conb_1 abstract view
.subckt sky130_fd_sc_hd__conb_1 HI LO VGND VNB VPB VPWR
.ends

* Black-box entry subcircuit for sky130_fd_sc_hd__clkbuf_1 abstract view
.subckt sky130_fd_sc_hd__clkbuf_1 A X VGND VNB VPB VPWR
.ends

* Black-box entry subcircuit for sky130_fd_sc_hd__fill_2 abstract view
.subckt sky130_fd_sc_hd__fill_2 VGND VNB VPB VPWR
.ends

* Black-box entry subcircuit for sky130_fd_sc_hd__decap_4 abstract view
.subckt sky130_fd_sc_hd__decap_4 VGND VNB VPB VPWR
.ends

* Black-box entry subcircuit for sky130_fd_sc_hd__sdfxtp_1 abstract view
.subckt sky130_fd_sc_hd__sdfxtp_1 D Q SCD SCE CLK VGND VNB VPB VPWR
.ends

* Black-box entry subcircuit for sky130_fd_sc_hd__tapvpwrvgnd_1 abstract view
.subckt sky130_fd_sc_hd__tapvpwrvgnd_1 VGND VPWR
.ends

* Black-box entry subcircuit for sky130_fd_sc_hd__decap_12 abstract view
.subckt sky130_fd_sc_hd__decap_12 VGND VNB VPB VPWR
.ends

* Black-box entry subcircuit for sky130_fd_sc_hd__decap_3 abstract view
.subckt sky130_fd_sc_hd__decap_3 VGND VNB VPB VPWR
.ends

* Black-box entry subcircuit for sky130_fd_sc_hd__decap_8 abstract view
.subckt sky130_fd_sc_hd__decap_8 VGND VNB VPB VPWR
.ends

* Black-box entry subcircuit for sky130_fd_sc_hd__or2_1 abstract view
.subckt sky130_fd_sc_hd__or2_1 A B X VGND VNB VPB VPWR
.ends

* Black-box entry subcircuit for sky130_fd_sc_hd__clkbuf_16 abstract view
.subckt sky130_fd_sc_hd__clkbuf_16 A X VGND VNB VPB VPWR
.ends

* Black-box entry subcircuit for sky130_fd_sc_hd__diode_2 abstract view
.subckt sky130_fd_sc_hd__diode_2 DIODE VGND VNB VPB VPWR
.ends

.subckt grid_clb SC_IN_BOT SC_IN_TOP SC_OUT_BOT SC_OUT_TOP Test_en bottom_width_0_height_0__pin_50_
+ bottom_width_0_height_0__pin_51_ ccff_head ccff_tail clk left_width_0_height_0__pin_52_
+ prog_clk right_width_0_height_0__pin_16_ right_width_0_height_0__pin_17_ right_width_0_height_0__pin_18_
+ right_width_0_height_0__pin_19_ right_width_0_height_0__pin_20_ right_width_0_height_0__pin_21_
+ right_width_0_height_0__pin_22_ right_width_0_height_0__pin_23_ right_width_0_height_0__pin_24_
+ right_width_0_height_0__pin_25_ right_width_0_height_0__pin_26_ right_width_0_height_0__pin_27_
+ right_width_0_height_0__pin_28_ right_width_0_height_0__pin_29_ right_width_0_height_0__pin_30_
+ right_width_0_height_0__pin_31_ right_width_0_height_0__pin_42_lower right_width_0_height_0__pin_42_upper
+ right_width_0_height_0__pin_43_lower right_width_0_height_0__pin_43_upper right_width_0_height_0__pin_44_lower
+ right_width_0_height_0__pin_44_upper right_width_0_height_0__pin_45_lower right_width_0_height_0__pin_45_upper
+ right_width_0_height_0__pin_46_lower right_width_0_height_0__pin_46_upper right_width_0_height_0__pin_47_lower
+ right_width_0_height_0__pin_47_upper right_width_0_height_0__pin_48_lower right_width_0_height_0__pin_48_upper
+ right_width_0_height_0__pin_49_lower right_width_0_height_0__pin_49_upper top_width_0_height_0__pin_0_
+ top_width_0_height_0__pin_10_ top_width_0_height_0__pin_11_ top_width_0_height_0__pin_12_
+ top_width_0_height_0__pin_13_ top_width_0_height_0__pin_14_ top_width_0_height_0__pin_15_
+ top_width_0_height_0__pin_1_ top_width_0_height_0__pin_2_ top_width_0_height_0__pin_32_
+ top_width_0_height_0__pin_33_ top_width_0_height_0__pin_34_lower top_width_0_height_0__pin_34_upper
+ top_width_0_height_0__pin_35_lower top_width_0_height_0__pin_35_upper top_width_0_height_0__pin_36_lower
+ top_width_0_height_0__pin_36_upper top_width_0_height_0__pin_37_lower top_width_0_height_0__pin_37_upper
+ top_width_0_height_0__pin_38_lower top_width_0_height_0__pin_38_upper top_width_0_height_0__pin_39_lower
+ top_width_0_height_0__pin_39_upper top_width_0_height_0__pin_3_ top_width_0_height_0__pin_40_lower
+ top_width_0_height_0__pin_40_upper top_width_0_height_0__pin_41_lower top_width_0_height_0__pin_41_upper
+ top_width_0_height_0__pin_4_ top_width_0_height_0__pin_5_ top_width_0_height_0__pin_6_
+ top_width_0_height_0__pin_7_ top_width_0_height_0__pin_8_ top_width_0_height_0__pin_9_
+ VPWR VGND
X_83_ top_width_0_height_0__pin_41_lower top_width_0_height_0__pin_41_upper VGND VGND
+ VPWR VPWR sky130_fd_sc_hd__buf_2
Xltile_clb_mode_0.ltile_clb_mode_fle_5.ltile_clb_physical__fabric_0.ltile_clb__frac_logic_0.ltile_clb_frac_lut4_0.frac_lut4_0_.sky130_fd_sc_hd__buf_2_3_
+ ltile_clb_mode_0.ltile_clb_mode_fle_5.ltile_clb_physical__fabric_0.ltile_clb__frac_logic_0.ltile_clb_frac_lut4_0.frac_lut4_0_.sky130_fd_sc_hd__or2_1_0_/X
+ ltile_clb_mode_0.ltile_clb_mode_fle_5.ltile_clb_physical__fabric_0.ltile_clb__frac_logic_0.ltile_clb_frac_lut4_0.frac_lut4_0_.sky130_fd_sc_hd__buf_2_3_/X
+ VGND VGND VPWR VPWR sky130_fd_sc_hd__buf_2
Xltile_clb_mode_0.ltile_clb_mode_fle_4.ltile_clb_physical__fabric_0.ltile_clb__frac_logic_0.ltile_clb_frac_lut4_0.frac_lut4_sky130_fd_sc_hd__dfxtp_1_mem.sky130_fd_sc_hd__dfxtp_1_5_
+ ltile_clb_mode_0.ltile_clb_mode_fle_4.ltile_clb_physical__fabric_0.ltile_clb__frac_logic_0.ltile_clb_frac_lut4_0.frac_lut4_0_.frac_lut4_mux_0_.mux_l1_in_2_/A1
+ ltile_clb_mode_0.ltile_clb_mode_fle_4.ltile_clb_physical__fabric_0.ltile_clb__frac_logic_0.ltile_clb_frac_lut4_0.frac_lut4_0_.frac_lut4_mux_0_.mux_l1_in_2_/A0
+ clkbuf_4_10_0_prog_clk/X VGND VGND VPWR VPWR sky130_fd_sc_hd__dfxtp_1
Xltile_clb_mode_0.ltile_clb_mode_fle_7.ltile_clb_physical__fabric_0.mux_fabric_out_1.mux_l2_in_0_
+ _49_/HI ltile_clb_mode_0.ltile_clb_mode_fle_7.ltile_clb_physical__fabric_0.mux_fabric_out_1.mux_l1_in_0_/X
+ ltile_clb_mode_0.ltile_clb_mode_fle_7.ltile_clb_physical__fabric_0.mux_fabric_out_1.mux_l2_in_0_/S
+ right_width_0_height_0__pin_48_lower VGND VGND VPWR VPWR sky130_fd_sc_hd__mux2_1
X_66_ SC_OUT_BOT SC_OUT_TOP VGND VGND VPWR VPWR sky130_fd_sc_hd__buf_2
Xltile_clb_mode_0.ltile_clb_mode_fle_0.ltile_clb_physical__fabric_0.ltile_clb__frac_logic_0.ltile_clb_frac_lut4_0.frac_lut4_0_.sky130_fd_sc_hd__buf_2_1_
+ top_width_0_height_0__pin_1_ ltile_clb_mode_0.ltile_clb_mode_fle_0.ltile_clb_physical__fabric_0.ltile_clb__frac_logic_0.ltile_clb_frac_lut4_0.frac_lut4_0_.sky130_fd_sc_hd__buf_2_1_/X
+ VGND VGND VPWR VPWR sky130_fd_sc_hd__buf_2
XFILLER_23_20 VGND VGND VPWR VPWR sky130_fd_sc_hd__fill_1
XFILLER_0_46 VGND VGND VPWR VPWR sky130_fd_sc_hd__decap_6
Xltile_clb_mode_0.ltile_clb_mode_fle_7.ltile_clb_physical__fabric_0.ltile_clb__frac_logic_0.ltile_clb_frac_lut4_0.frac_lut4_0_.frac_lut4_mux_0_.mux_l2_in_0_
+ ltile_clb_mode_0.ltile_clb_mode_fle_7.ltile_clb_physical__fabric_0.ltile_clb__frac_logic_0.ltile_clb_frac_lut4_0.frac_lut4_0_.frac_lut4_mux_0_.mux_l1_in_1_/X
+ ltile_clb_mode_0.ltile_clb_mode_fle_7.ltile_clb_physical__fabric_0.ltile_clb__frac_logic_0.ltile_clb_frac_lut4_0.frac_lut4_0_.frac_lut4_mux_0_.mux_l1_in_0_/X
+ ltile_clb_mode_0.ltile_clb_mode_fle_7.ltile_clb_physical__fabric_0.ltile_clb__frac_logic_0.ltile_clb_frac_lut4_0.frac_lut4_0_.sky130_fd_sc_hd__buf_2_1_/X
+ ltile_clb_mode_0.ltile_clb_mode_fle_7.ltile_clb_physical__fabric_0.ltile_clb__frac_logic_0.ltile_clb_frac_lut4_0.frac_lut4_0_.frac_lut4_mux_0_.mux_l2_in_0_/X
+ VGND VGND VPWR VPWR sky130_fd_sc_hd__mux2_1
X_49_ _49_/HI _49_/LO VGND VGND VPWR VPWR sky130_fd_sc_hd__conb_1
Xclkbuf_3_4_0_prog_clk clkbuf_2_2_0_prog_clk/X clkbuf_4_9_0_prog_clk/A VGND VGND VPWR
+ VPWR sky130_fd_sc_hd__clkbuf_1
Xltile_clb_mode_0.ltile_clb_mode_fle_0.ltile_clb_physical__fabric_0.ltile_clb__frac_logic_0.ltile_clb_frac_lut4_0.frac_lut4_sky130_fd_sc_hd__dfxtp_1_mem.sky130_fd_sc_hd__dfxtp_1_0_
+ ccff_head ltile_clb_mode_0.ltile_clb_mode_fle_0.ltile_clb_physical__fabric_0.ltile_clb__frac_logic_0.ltile_clb_frac_lut4_0.frac_lut4_0_.frac_lut4_mux_0_.mux_l1_in_0_/A1
+ clkbuf_4_4_0_prog_clk/X VGND VGND VPWR VPWR sky130_fd_sc_hd__dfxtp_1
Xltile_clb_mode_0.ltile_clb_mode_fle_4.ltile_clb_physical__fabric_0.ltile_clb__frac_logic_0.ltile_clb_frac_lut4_0.frac_lut4_0_.frac_lut4_mux_0_.mux_l1_in_6_
+ ltile_clb_mode_0.ltile_clb_mode_fle_4.ltile_clb_physical__fabric_0.ltile_clb__frac_logic_0.ltile_clb_frac_lut4_0.frac_lut4_0_.frac_lut4_mux_0_.mux_l1_in_6_/A0
+ ltile_clb_mode_0.ltile_clb_mode_fle_4.ltile_clb_physical__fabric_0.ltile_clb__frac_logic_0.ltile_clb_frac_lut4_0.frac_lut4_0_.frac_lut4_mux_0_.mux_l1_in_6_/A1
+ ltile_clb_mode_0.ltile_clb_mode_fle_4.ltile_clb_physical__fabric_0.ltile_clb__frac_logic_0.ltile_clb_frac_lut4_0.frac_lut4_0_.sky130_fd_sc_hd__buf_2_0_/X
+ ltile_clb_mode_0.ltile_clb_mode_fle_4.ltile_clb_physical__fabric_0.ltile_clb__frac_logic_0.ltile_clb_frac_lut4_0.frac_lut4_0_.frac_lut4_mux_0_.mux_l1_in_6_/X
+ VGND VGND VPWR VPWR sky130_fd_sc_hd__mux2_1
Xltile_clb_mode_0.ltile_clb_mode_fle_7.ltile_clb_physical__fabric_0.ltile_clb__frac_logic_0.ltile_clb_frac_lut4_0.frac_lut4_sky130_fd_sc_hd__dfxtp_1_mem.sky130_fd_sc_hd__dfxtp_1_11_
+ ltile_clb_mode_0.ltile_clb_mode_fle_7.ltile_clb_physical__fabric_0.ltile_clb__frac_logic_0.ltile_clb_frac_lut4_0.frac_lut4_0_.frac_lut4_mux_0_.mux_l1_in_5_/A1
+ ltile_clb_mode_0.ltile_clb_mode_fle_7.ltile_clb_physical__fabric_0.ltile_clb__frac_logic_0.ltile_clb_frac_lut4_0.frac_lut4_0_.frac_lut4_mux_0_.mux_l1_in_5_/A0
+ clkbuf_4_14_0_prog_clk/X VGND VGND VPWR VPWR sky130_fd_sc_hd__dfxtp_1
XFILLER_20_32 VGND VGND VPWR VPWR sky130_fd_sc_hd__fill_2
XFILLER_19_194 VGND VGND VPWR VPWR sky130_fd_sc_hd__fill_1
Xltile_clb_mode_0.ltile_clb_mode_fle_7.ltile_clb_physical__fabric_0.ltile_clb__frac_logic_0.ltile_clb_frac_lut4_0.frac_lut4_0_.frac_lut4_mux_0_.mux_l1_in_1_
+ ltile_clb_mode_0.ltile_clb_mode_fle_7.ltile_clb_physical__fabric_0.ltile_clb__frac_logic_0.ltile_clb_frac_lut4_0.frac_lut4_0_.frac_lut4_mux_0_.mux_l1_in_1_/A0
+ ltile_clb_mode_0.ltile_clb_mode_fle_7.ltile_clb_physical__fabric_0.ltile_clb__frac_logic_0.ltile_clb_frac_lut4_0.frac_lut4_0_.frac_lut4_mux_0_.mux_l1_in_1_/A1
+ ltile_clb_mode_0.ltile_clb_mode_fle_7.ltile_clb_physical__fabric_0.ltile_clb__frac_logic_0.ltile_clb_frac_lut4_0.frac_lut4_0_.sky130_fd_sc_hd__buf_2_0_/X
+ ltile_clb_mode_0.ltile_clb_mode_fle_7.ltile_clb_physical__fabric_0.ltile_clb__frac_logic_0.ltile_clb_frac_lut4_0.frac_lut4_0_.frac_lut4_mux_0_.mux_l1_in_1_/X
+ VGND VGND VPWR VPWR sky130_fd_sc_hd__mux2_1
XFILLER_13_3 VGND VGND VPWR VPWR sky130_fd_sc_hd__decap_4
Xltile_clb_mode_0.ltile_clb_mode_fle_2.ltile_clb_physical__fabric_0.ltile_clb__frac_logic_0.mem_frac_logic_out_0.sky130_fd_sc_hd__dfxtp_1_0_
+ ltile_clb_mode_0.ltile_clb_mode_fle_2.ltile_clb_physical__fabric_0.ltile_clb__frac_logic_0.mem_frac_logic_out_0.sky130_fd_sc_hd__dfxtp_1_0_/D
+ ltile_clb_mode_0.ltile_clb_mode_fle_2.ltile_clb_physical__fabric_0.ltile_clb__frac_logic_0.mux_frac_logic_out_0.mux_l1_in_0_/S
+ clkbuf_4_12_0_prog_clk/X VGND VGND VPWR VPWR sky130_fd_sc_hd__dfxtp_1
XFILLER_15_98 VGND VGND VPWR VPWR sky130_fd_sc_hd__fill_2
XFILLER_31_156 VGND VGND VPWR VPWR sky130_fd_sc_hd__fill_2
Xltile_clb_mode_0.ltile_clb_mode_fle_0.ltile_clb_physical__fabric_0.ltile_clb__frac_logic_0.ltile_clb_frac_lut4_0.frac_lut4_0_.frac_lut4_mux_0_.mux_l1_in_0_
+ ltile_clb_mode_0.ltile_clb_mode_fle_0.ltile_clb_physical__fabric_0.ltile_clb__frac_logic_0.ltile_clb_frac_lut4_0.frac_lut4_0_.frac_lut4_mux_0_.mux_l1_in_0_/A0
+ ltile_clb_mode_0.ltile_clb_mode_fle_0.ltile_clb_physical__fabric_0.ltile_clb__frac_logic_0.ltile_clb_frac_lut4_0.frac_lut4_0_.frac_lut4_mux_0_.mux_l1_in_0_/A1
+ ltile_clb_mode_0.ltile_clb_mode_fle_0.ltile_clb_physical__fabric_0.ltile_clb__frac_logic_0.ltile_clb_frac_lut4_0.frac_lut4_0_.sky130_fd_sc_hd__buf_2_0_/X
+ ltile_clb_mode_0.ltile_clb_mode_fle_0.ltile_clb_physical__fabric_0.ltile_clb__frac_logic_0.ltile_clb_frac_lut4_0.frac_lut4_0_.frac_lut4_mux_0_.mux_l1_in_0_/X
+ VGND VGND VPWR VPWR sky130_fd_sc_hd__mux2_1
XFILLER_3_35 VGND VGND VPWR VPWR sky130_fd_sc_hd__fill_1
Xltile_clb_mode_0.ltile_clb_mode_fle_5.ltile_clb_physical__fabric_0.ltile_clb__frac_logic_0.ltile_clb_frac_lut4_0.frac_lut4_0_.sky130_fd_sc_hd__buf_2_2_
+ right_width_0_height_0__pin_22_ ltile_clb_mode_0.ltile_clb_mode_fle_5.ltile_clb_physical__fabric_0.ltile_clb__frac_logic_0.ltile_clb_frac_lut4_0.frac_lut4_0_.sky130_fd_sc_hd__buf_2_2_/X
+ VGND VGND VPWR VPWR sky130_fd_sc_hd__buf_2
Xltile_clb_mode_0.ltile_clb_mode_fle_2.ltile_clb_physical__fabric_0.ltile_clb__frac_logic_0.mux_frac_logic_out_0.mux_l1_in_0_
+ ltile_clb_mode_0.ltile_clb_mode_fle_2.ltile_clb_physical__fabric_0.ltile_clb__frac_logic_0.mux_frac_logic_out_0.mux_l1_in_0_/A0
+ ltile_clb_mode_0.ltile_clb_mode_fle_2.ltile_clb_physical__fabric_0.ltile_clb__frac_logic_0.mux_frac_logic_out_0.mux_l1_in_0_/A1
+ ltile_clb_mode_0.ltile_clb_mode_fle_2.ltile_clb_physical__fabric_0.ltile_clb__frac_logic_0.mux_frac_logic_out_0.mux_l1_in_0_/S
+ ltile_clb_mode_0.ltile_clb_mode_fle_2.ltile_clb_physical__fabric_0.ltile_clb__frac_logic_0.mux_frac_logic_out_0.mux_l1_in_0_/X
+ VGND VGND VPWR VPWR sky130_fd_sc_hd__mux2_1
X_82_ top_width_0_height_0__pin_40_lower top_width_0_height_0__pin_40_upper VGND VGND
+ VPWR VPWR sky130_fd_sc_hd__buf_2
Xltile_clb_mode_0.ltile_clb_mode_fle_3.ltile_clb_physical__fabric_0.mem_ff_0_D_0.sky130_fd_sc_hd__dfxtp_1_1_
+ ltile_clb_mode_0.ltile_clb_mode_fle_3.ltile_clb_physical__fabric_0.mux_ff_0_D_0.mux_l1_in_0_/S
+ ltile_clb_mode_0.ltile_clb_mode_fle_3.ltile_clb_physical__fabric_0.mux_ff_0_D_0.mux_l2_in_0_/S
+ clkbuf_4_12_0_prog_clk/X VGND VGND VPWR VPWR sky130_fd_sc_hd__dfxtp_1
Xltile_clb_mode_0.ltile_clb_mode_fle_4.ltile_clb_physical__fabric_0.ltile_clb__frac_logic_0.ltile_clb_frac_lut4_0.frac_lut4_sky130_fd_sc_hd__dfxtp_1_mem.sky130_fd_sc_hd__dfxtp_1_4_
+ ltile_clb_mode_0.ltile_clb_mode_fle_4.ltile_clb_physical__fabric_0.ltile_clb__frac_logic_0.ltile_clb_frac_lut4_0.frac_lut4_0_.frac_lut4_mux_0_.mux_l1_in_1_/A0
+ ltile_clb_mode_0.ltile_clb_mode_fle_4.ltile_clb_physical__fabric_0.ltile_clb__frac_logic_0.ltile_clb_frac_lut4_0.frac_lut4_0_.frac_lut4_mux_0_.mux_l1_in_2_/A1
+ clkbuf_4_10_0_prog_clk/X VGND VGND VPWR VPWR sky130_fd_sc_hd__dfxtp_1
Xltile_clb_mode_0.ltile_clb_mode_fle_6.ltile_clb_physical__fabric_0.ltile_clb__ff_1.sky130_fd_sc_hd__sdfxtp_1_0_
+ ltile_clb_mode_0.ltile_clb_mode_fle_6.ltile_clb_physical__fabric_0.mux_fabric_out_1.mux_l1_in_0_/A0
+ ltile_clb_mode_0.ltile_clb_mode_fle_7.ltile_clb_physical__fabric_0.mux_ff_0_D_0.mux_l1_in_0_/A0
+ ltile_clb_mode_0.ltile_clb_mode_fle_6.ltile_clb_physical__fabric_0.mux_fabric_out_0.mux_l1_in_0_/A1
+ Test_en clkbuf_1_0_0_clk/X VGND VGND VPWR VPWR sky130_fd_sc_hd__sdfxtp_1
XFILLER_12_11 VGND VGND VPWR VPWR sky130_fd_sc_hd__fill_2
X_65_ SC_IN_BOT SC_IN_TOP VGND VGND VPWR VPWR sky130_fd_sc_hd__buf_2
Xltile_clb_mode_0.ltile_clb_mode_fle_0.ltile_clb_physical__fabric_0.ltile_clb__frac_logic_0.ltile_clb_frac_lut4_0.frac_lut4_0_.sky130_fd_sc_hd__buf_2_0_
+ top_width_0_height_0__pin_0_ ltile_clb_mode_0.ltile_clb_mode_fle_0.ltile_clb_physical__fabric_0.ltile_clb__frac_logic_0.ltile_clb_frac_lut4_0.frac_lut4_0_.sky130_fd_sc_hd__buf_2_0_/X
+ VGND VGND VPWR VPWR sky130_fd_sc_hd__buf_2
Xclkbuf_4_6_0_prog_clk clkbuf_4_7_0_prog_clk/A clkbuf_4_6_0_prog_clk/X VGND VGND VPWR
+ VPWR sky130_fd_sc_hd__clkbuf_1
XFILLER_9_23 VGND VGND VPWR VPWR sky130_fd_sc_hd__fill_2
Xltile_clb_mode_0.ltile_clb_mode_fle_7.ltile_clb_physical__fabric_0.mux_fabric_out_1.mux_l1_in_0_
+ ltile_clb_mode_0.ltile_clb_mode_fle_7.ltile_clb_physical__fabric_0.mux_fabric_out_1.mux_l1_in_0_/A0
+ SC_OUT_BOT ltile_clb_mode_0.ltile_clb_mode_fle_7.ltile_clb_physical__fabric_0.mux_fabric_out_1.mux_l1_in_0_/S
+ ltile_clb_mode_0.ltile_clb_mode_fle_7.ltile_clb_physical__fabric_0.mux_fabric_out_1.mux_l1_in_0_/X
+ VGND VGND VPWR VPWR sky130_fd_sc_hd__mux2_1
XFILLER_20_210 VGND VGND VPWR VPWR sky130_fd_sc_hd__fill_2
X_48_ _48_/HI _48_/LO VGND VGND VPWR VPWR sky130_fd_sc_hd__conb_1
XFILLER_18_32 VGND VGND VPWR VPWR sky130_fd_sc_hd__fill_1
Xltile_clb_mode_0.ltile_clb_mode_fle_4.ltile_clb_physical__fabric_0.ltile_clb__frac_logic_0.ltile_clb_frac_lut4_0.frac_lut4_0_.frac_lut4_mux_0_.mux_l1_in_5_
+ ltile_clb_mode_0.ltile_clb_mode_fle_4.ltile_clb_physical__fabric_0.ltile_clb__frac_logic_0.ltile_clb_frac_lut4_0.frac_lut4_0_.frac_lut4_mux_0_.mux_l1_in_5_/A0
+ ltile_clb_mode_0.ltile_clb_mode_fle_4.ltile_clb_physical__fabric_0.ltile_clb__frac_logic_0.ltile_clb_frac_lut4_0.frac_lut4_0_.frac_lut4_mux_0_.mux_l1_in_5_/A1
+ ltile_clb_mode_0.ltile_clb_mode_fle_4.ltile_clb_physical__fabric_0.ltile_clb__frac_logic_0.ltile_clb_frac_lut4_0.frac_lut4_0_.sky130_fd_sc_hd__buf_2_0_/X
+ ltile_clb_mode_0.ltile_clb_mode_fle_4.ltile_clb_physical__fabric_0.ltile_clb__frac_logic_0.ltile_clb_frac_lut4_0.frac_lut4_0_.frac_lut4_mux_0_.mux_l1_in_5_/X
+ VGND VGND VPWR VPWR sky130_fd_sc_hd__mux2_1
Xltile_clb_mode_0.ltile_clb_mode_fle_7.ltile_clb_physical__fabric_0.ltile_clb__frac_logic_0.ltile_clb_frac_lut4_0.frac_lut4_sky130_fd_sc_hd__dfxtp_1_mem.sky130_fd_sc_hd__dfxtp_1_10_
+ ltile_clb_mode_0.ltile_clb_mode_fle_7.ltile_clb_physical__fabric_0.ltile_clb__frac_logic_0.ltile_clb_frac_lut4_0.frac_lut4_0_.frac_lut4_mux_0_.mux_l1_in_4_/A0
+ ltile_clb_mode_0.ltile_clb_mode_fle_7.ltile_clb_physical__fabric_0.ltile_clb__frac_logic_0.ltile_clb_frac_lut4_0.frac_lut4_0_.frac_lut4_mux_0_.mux_l1_in_5_/A1
+ clkbuf_4_15_0_prog_clk/X VGND VGND VPWR VPWR sky130_fd_sc_hd__dfxtp_1
XFILLER_19_184 VGND VGND VPWR VPWR sky130_fd_sc_hd__fill_1
Xltile_clb_mode_0.ltile_clb_mode_fle_7.ltile_clb_physical__fabric_0.ltile_clb__frac_logic_0.ltile_clb_frac_lut4_0.frac_lut4_0_.frac_lut4_mux_0_.mux_l1_in_0_
+ ltile_clb_mode_0.ltile_clb_mode_fle_7.ltile_clb_physical__fabric_0.ltile_clb__frac_logic_0.ltile_clb_frac_lut4_0.frac_lut4_0_.frac_lut4_mux_0_.mux_l1_in_0_/A0
+ ltile_clb_mode_0.ltile_clb_mode_fle_7.ltile_clb_physical__fabric_0.ltile_clb__frac_logic_0.ltile_clb_frac_lut4_0.frac_lut4_0_.frac_lut4_mux_0_.mux_l1_in_0_/A1
+ ltile_clb_mode_0.ltile_clb_mode_fle_7.ltile_clb_physical__fabric_0.ltile_clb__frac_logic_0.ltile_clb_frac_lut4_0.frac_lut4_0_.sky130_fd_sc_hd__buf_2_0_/X
+ ltile_clb_mode_0.ltile_clb_mode_fle_7.ltile_clb_physical__fabric_0.ltile_clb__frac_logic_0.ltile_clb_frac_lut4_0.frac_lut4_0_.frac_lut4_mux_0_.mux_l1_in_0_/X
+ VGND VGND VPWR VPWR sky130_fd_sc_hd__mux2_1
XFILLER_25_121 VGND VGND VPWR VPWR sky130_fd_sc_hd__fill_1
XFILLER_31_98 VGND VGND VPWR VPWR sky130_fd_sc_hd__fill_2
XPHY_160 VGND VPWR sky130_fd_sc_hd__tapvpwrvgnd_1
XFILLER_26_32 VGND VGND VPWR VPWR sky130_fd_sc_hd__fill_1
XFILLER_9_139 VGND VGND VPWR VPWR sky130_fd_sc_hd__fill_1
X_81_ top_width_0_height_0__pin_39_lower top_width_0_height_0__pin_39_upper VGND VGND
+ VPWR VPWR sky130_fd_sc_hd__buf_2
Xltile_clb_mode_0.ltile_clb_mode_fle_2.ltile_clb_physical__fabric_0.ltile_clb__frac_logic_0.ltile_clb_frac_lut4_0.frac_lut4_sky130_fd_sc_hd__dfxtp_1_mem.sky130_fd_sc_hd__dfxtp_1_16_
+ ltile_clb_mode_0.ltile_clb_mode_fle_2.ltile_clb_physical__fabric_0.ltile_clb__frac_logic_0.ltile_clb_frac_lut4_0.frac_lut4_0_.frac_lut4_mux_0_.mux_l1_in_7_/A0
+ ltile_clb_mode_0.ltile_clb_mode_fle_2.ltile_clb_physical__fabric_0.ltile_clb__frac_logic_0.mem_frac_logic_out_0.sky130_fd_sc_hd__dfxtp_1_0_/D
+ clkbuf_4_6_0_prog_clk/X VGND VGND VPWR VPWR sky130_fd_sc_hd__dfxtp_1
Xltile_clb_mode_0.ltile_clb_mode_fle_5.ltile_clb_physical__fabric_0.ltile_clb__frac_logic_0.ltile_clb_frac_lut4_0.frac_lut4_0_.sky130_fd_sc_hd__buf_2_1_
+ right_width_0_height_0__pin_21_ ltile_clb_mode_0.ltile_clb_mode_fle_5.ltile_clb_physical__fabric_0.ltile_clb__frac_logic_0.ltile_clb_frac_lut4_0.frac_lut4_0_.sky130_fd_sc_hd__buf_2_1_/X
+ VGND VGND VPWR VPWR sky130_fd_sc_hd__buf_2
Xltile_clb_mode_0.ltile_clb_mode_fle_3.ltile_clb_physical__fabric_0.mem_ff_0_D_0.sky130_fd_sc_hd__dfxtp_1_0_
+ ltile_clb_mode_0.ltile_clb_mode_fle_3.ltile_clb_physical__fabric_0.mux_fabric_out_1.mux_l2_in_0_/S
+ ltile_clb_mode_0.ltile_clb_mode_fle_3.ltile_clb_physical__fabric_0.mux_ff_0_D_0.mux_l1_in_0_/S
+ clkbuf_4_12_0_prog_clk/X VGND VGND VPWR VPWR sky130_fd_sc_hd__dfxtp_1
Xltile_clb_mode_0.ltile_clb_mode_fle_7.ltile_clb_physical__fabric_0.mem_fabric_out_0.sky130_fd_sc_hd__dfxtp_1_1_
+ ltile_clb_mode_0.ltile_clb_mode_fle_7.ltile_clb_physical__fabric_0.mux_fabric_out_0.mux_l1_in_0_/S
+ ltile_clb_mode_0.ltile_clb_mode_fle_7.ltile_clb_physical__fabric_0.mux_fabric_out_0.mux_l2_in_0_/S
+ clkbuf_4_14_0_prog_clk/X VGND VGND VPWR VPWR sky130_fd_sc_hd__dfxtp_1
Xltile_clb_mode_0.ltile_clb_mode_fle_4.ltile_clb_physical__fabric_0.ltile_clb__frac_logic_0.ltile_clb_frac_lut4_0.frac_lut4_sky130_fd_sc_hd__dfxtp_1_mem.sky130_fd_sc_hd__dfxtp_1_3_
+ ltile_clb_mode_0.ltile_clb_mode_fle_4.ltile_clb_physical__fabric_0.ltile_clb__frac_logic_0.ltile_clb_frac_lut4_0.frac_lut4_0_.frac_lut4_mux_0_.mux_l1_in_1_/A1
+ ltile_clb_mode_0.ltile_clb_mode_fle_4.ltile_clb_physical__fabric_0.ltile_clb__frac_logic_0.ltile_clb_frac_lut4_0.frac_lut4_0_.frac_lut4_mux_0_.mux_l1_in_1_/A0
+ clkbuf_4_10_0_prog_clk/X VGND VGND VPWR VPWR sky130_fd_sc_hd__dfxtp_1
X_64_ _64_/HI bottom_width_0_height_0__pin_51_ VGND VGND VPWR VPWR sky130_fd_sc_hd__conb_1
Xltile_clb_mode_0.ltile_clb_mode_fle_4.ltile_clb_physical__fabric_0.ltile_clb__frac_logic_0.ltile_clb_frac_lut4_0.frac_lut4_0_.frac_lut4_mux_0_.mux_l2_in_3_
+ ltile_clb_mode_0.ltile_clb_mode_fle_4.ltile_clb_physical__fabric_0.ltile_clb__frac_logic_0.ltile_clb_frac_lut4_0.frac_lut4_0_.frac_lut4_mux_0_.mux_l1_in_7_/X
+ ltile_clb_mode_0.ltile_clb_mode_fle_4.ltile_clb_physical__fabric_0.ltile_clb__frac_logic_0.ltile_clb_frac_lut4_0.frac_lut4_0_.frac_lut4_mux_0_.mux_l1_in_6_/X
+ ltile_clb_mode_0.ltile_clb_mode_fle_4.ltile_clb_physical__fabric_0.ltile_clb__frac_logic_0.ltile_clb_frac_lut4_0.frac_lut4_0_.sky130_fd_sc_hd__buf_2_1_/X
+ ltile_clb_mode_0.ltile_clb_mode_fle_4.ltile_clb_physical__fabric_0.ltile_clb__frac_logic_0.ltile_clb_frac_lut4_0.frac_lut4_0_.frac_lut4_mux_0_.mux_l2_in_3_/X
+ VGND VGND VPWR VPWR sky130_fd_sc_hd__mux2_1
XFILLER_4_90 VGND VGND VPWR VPWR sky130_fd_sc_hd__fill_2
XFILLER_3_3 VGND VGND VPWR VPWR sky130_fd_sc_hd__decap_12
XFILLER_0_15 VGND VGND VPWR VPWR sky130_fd_sc_hd__decap_12
X_47_ _47_/HI _47_/LO VGND VGND VPWR VPWR sky130_fd_sc_hd__conb_1
Xltile_clb_mode_0.ltile_clb_mode_fle_4.ltile_clb_physical__fabric_0.ltile_clb__frac_logic_0.ltile_clb_frac_lut4_0.frac_lut4_0_.frac_lut4_mux_0_.mux_l1_in_4_
+ ltile_clb_mode_0.ltile_clb_mode_fle_4.ltile_clb_physical__fabric_0.ltile_clb__frac_logic_0.ltile_clb_frac_lut4_0.frac_lut4_0_.frac_lut4_mux_0_.mux_l1_in_4_/A0
+ ltile_clb_mode_0.ltile_clb_mode_fle_4.ltile_clb_physical__fabric_0.ltile_clb__frac_logic_0.ltile_clb_frac_lut4_0.frac_lut4_0_.frac_lut4_mux_0_.mux_l1_in_4_/A1
+ ltile_clb_mode_0.ltile_clb_mode_fle_4.ltile_clb_physical__fabric_0.ltile_clb__frac_logic_0.ltile_clb_frac_lut4_0.frac_lut4_0_.sky130_fd_sc_hd__buf_2_0_/X
+ ltile_clb_mode_0.ltile_clb_mode_fle_4.ltile_clb_physical__fabric_0.ltile_clb__frac_logic_0.ltile_clb_frac_lut4_0.frac_lut4_0_.frac_lut4_mux_0_.mux_l1_in_4_/X
+ VGND VGND VPWR VPWR sky130_fd_sc_hd__mux2_1
Xltile_clb_mode_0.ltile_clb_mode_fle_4.ltile_clb_physical__fabric_0.ltile_clb__frac_logic_0.ltile_clb_frac_lut4_0.frac_lut4_0_.frac_lut4_mux_0_.mux_l4_in_0_
+ ltile_clb_mode_0.ltile_clb_mode_fle_4.ltile_clb_physical__fabric_0.ltile_clb__frac_logic_0.ltile_clb_frac_lut4_0.frac_lut4_0_.frac_lut4_mux_0_.mux_l3_in_1_/X
+ ltile_clb_mode_0.ltile_clb_mode_fle_4.ltile_clb_physical__fabric_0.ltile_clb__frac_logic_0.ltile_clb_frac_lut4_0.frac_lut4_0_.frac_lut4_mux_0_.mux_l3_in_0_/X
+ ltile_clb_mode_0.ltile_clb_mode_fle_4.ltile_clb_physical__fabric_0.ltile_clb__frac_logic_0.ltile_clb_frac_lut4_0.frac_lut4_0_.sky130_fd_sc_hd__buf_2_3_/X
+ ltile_clb_mode_0.ltile_clb_mode_fle_4.ltile_clb_physical__fabric_0.ltile_clb__frac_logic_0.ltile_clb_frac_lut4_0.frac_lut4_0_.frac_lut4_mux_0_.mux_l4_in_0_/X
+ VGND VGND VPWR VPWR sky130_fd_sc_hd__mux2_1
XFILLER_31_125 VGND VGND VPWR VPWR sky130_fd_sc_hd__fill_1
XPHY_161 VGND VPWR sky130_fd_sc_hd__tapvpwrvgnd_1
XPHY_150 VGND VPWR sky130_fd_sc_hd__tapvpwrvgnd_1
Xclkbuf_2_1_0_prog_clk clkbuf_1_0_0_prog_clk/X clkbuf_3_3_0_prog_clk/A VGND VGND VPWR
+ VPWR sky130_fd_sc_hd__clkbuf_1
Xltile_clb_mode_0.ltile_clb_mode_fle_4.ltile_clb_physical__fabric_0.ltile_clb__frac_logic_0.ltile_clb_frac_lut4_0.frac_lut4_0_.frac_lut4_mux_0_.mux_l3_in_1_
+ ltile_clb_mode_0.ltile_clb_mode_fle_4.ltile_clb_physical__fabric_0.ltile_clb__frac_logic_0.ltile_clb_frac_lut4_0.frac_lut4_0_.frac_lut4_mux_0_.mux_l3_in_1_/A0
+ ltile_clb_mode_0.ltile_clb_mode_fle_4.ltile_clb_physical__fabric_0.ltile_clb__frac_logic_0.ltile_clb_frac_lut4_0.frac_lut4_0_.frac_lut4_mux_0_.mux_l3_in_1_/A1
+ ltile_clb_mode_0.ltile_clb_mode_fle_4.ltile_clb_physical__fabric_0.ltile_clb__frac_logic_0.ltile_clb_frac_lut4_0.frac_lut4_0_.sky130_fd_sc_hd__buf_2_2_/X
+ ltile_clb_mode_0.ltile_clb_mode_fle_4.ltile_clb_physical__fabric_0.ltile_clb__frac_logic_0.ltile_clb_frac_lut4_0.frac_lut4_0_.frac_lut4_mux_0_.mux_l3_in_1_/X
+ VGND VGND VPWR VPWR sky130_fd_sc_hd__mux2_1
XFILLER_13_136 VGND VGND VPWR VPWR sky130_fd_sc_hd__fill_1
X_80_ top_width_0_height_0__pin_38_lower top_width_0_height_0__pin_38_upper VGND VGND
+ VPWR VPWR sky130_fd_sc_hd__buf_2
Xltile_clb_mode_0.ltile_clb_mode_fle_2.ltile_clb_physical__fabric_0.ltile_clb__frac_logic_0.ltile_clb_frac_lut4_0.frac_lut4_sky130_fd_sc_hd__dfxtp_1_mem.sky130_fd_sc_hd__dfxtp_1_15_
+ ltile_clb_mode_0.ltile_clb_mode_fle_2.ltile_clb_physical__fabric_0.ltile_clb__frac_logic_0.ltile_clb_frac_lut4_0.frac_lut4_0_.frac_lut4_mux_0_.mux_l1_in_7_/A1
+ ltile_clb_mode_0.ltile_clb_mode_fle_2.ltile_clb_physical__fabric_0.ltile_clb__frac_logic_0.ltile_clb_frac_lut4_0.frac_lut4_0_.frac_lut4_mux_0_.mux_l1_in_7_/A0
+ clkbuf_4_3_0_prog_clk/X VGND VGND VPWR VPWR sky130_fd_sc_hd__dfxtp_1
XFILLER_3_15 VGND VGND VPWR VPWR sky130_fd_sc_hd__decap_12
Xltile_clb_mode_0.ltile_clb_mode_fle_5.ltile_clb_physical__fabric_0.ltile_clb__frac_logic_0.ltile_clb_frac_lut4_0.frac_lut4_0_.sky130_fd_sc_hd__buf_2_0_
+ right_width_0_height_0__pin_20_ ltile_clb_mode_0.ltile_clb_mode_fle_5.ltile_clb_physical__fabric_0.ltile_clb__frac_logic_0.ltile_clb_frac_lut4_0.frac_lut4_0_.sky130_fd_sc_hd__buf_2_0_/X
+ VGND VGND VPWR VPWR sky130_fd_sc_hd__buf_2
Xltile_clb_mode_0.ltile_clb_mode_fle_4.ltile_clb_physical__fabric_0.ltile_clb__frac_logic_0.ltile_clb_frac_lut4_0.frac_lut4_sky130_fd_sc_hd__dfxtp_1_mem.sky130_fd_sc_hd__dfxtp_1_2_
+ ltile_clb_mode_0.ltile_clb_mode_fle_4.ltile_clb_physical__fabric_0.ltile_clb__frac_logic_0.ltile_clb_frac_lut4_0.frac_lut4_0_.frac_lut4_mux_0_.mux_l1_in_0_/A0
+ ltile_clb_mode_0.ltile_clb_mode_fle_4.ltile_clb_physical__fabric_0.ltile_clb__frac_logic_0.ltile_clb_frac_lut4_0.frac_lut4_0_.frac_lut4_mux_0_.mux_l1_in_1_/A1
+ clkbuf_4_10_0_prog_clk/X VGND VGND VPWR VPWR sky130_fd_sc_hd__dfxtp_1
Xltile_clb_mode_0.ltile_clb_mode_fle_7.ltile_clb_physical__fabric_0.mem_fabric_out_0.sky130_fd_sc_hd__dfxtp_1_0_
+ ltile_clb_mode_0.ltile_clb_mode_fle_7.ltile_clb_physical__fabric_0.mem_fabric_out_0.sky130_fd_sc_hd__dfxtp_1_0_/D
+ ltile_clb_mode_0.ltile_clb_mode_fle_7.ltile_clb_physical__fabric_0.mux_fabric_out_0.mux_l1_in_0_/S
+ clkbuf_4_14_0_prog_clk/X VGND VGND VPWR VPWR sky130_fd_sc_hd__dfxtp_1
Xltile_clb_mode_0.ltile_clb_mode_fle_4.ltile_clb_physical__fabric_0.ltile_clb__frac_logic_0.ltile_clb_frac_lut4_0.frac_lut4_0_.frac_lut4_mux_0_.mux_l2_in_2_
+ ltile_clb_mode_0.ltile_clb_mode_fle_4.ltile_clb_physical__fabric_0.ltile_clb__frac_logic_0.ltile_clb_frac_lut4_0.frac_lut4_0_.frac_lut4_mux_0_.mux_l1_in_5_/X
+ ltile_clb_mode_0.ltile_clb_mode_fle_4.ltile_clb_physical__fabric_0.ltile_clb__frac_logic_0.ltile_clb_frac_lut4_0.frac_lut4_0_.frac_lut4_mux_0_.mux_l1_in_4_/X
+ ltile_clb_mode_0.ltile_clb_mode_fle_4.ltile_clb_physical__fabric_0.ltile_clb__frac_logic_0.ltile_clb_frac_lut4_0.frac_lut4_0_.sky130_fd_sc_hd__buf_2_1_/X
+ ltile_clb_mode_0.ltile_clb_mode_fle_4.ltile_clb_physical__fabric_0.ltile_clb__frac_logic_0.ltile_clb_frac_lut4_0.frac_lut4_0_.frac_lut4_mux_0_.mux_l2_in_2_/X
+ VGND VGND VPWR VPWR sky130_fd_sc_hd__mux2_1
XFILLER_5_121 VGND VGND VPWR VPWR sky130_fd_sc_hd__fill_1
X_63_ _63_/HI _63_/LO VGND VGND VPWR VPWR sky130_fd_sc_hd__conb_1
XFILLER_2_102 VGND VGND VPWR VPWR sky130_fd_sc_hd__decap_3
XFILLER_0_27 VGND VGND VPWR VPWR sky130_fd_sc_hd__decap_4
Xltile_clb_mode_0.ltile_clb_mode_fle_3.ltile_clb_physical__fabric_0.ltile_clb__ff_1.sky130_fd_sc_hd__sdfxtp_1_0_
+ ltile_clb_mode_0.ltile_clb_mode_fle_3.ltile_clb_physical__fabric_0.mux_fabric_out_1.mux_l1_in_0_/A0
+ ltile_clb_mode_0.ltile_clb_mode_fle_4.ltile_clb_physical__fabric_0.mux_ff_0_D_0.mux_l1_in_0_/A0
+ ltile_clb_mode_0.ltile_clb_mode_fle_3.ltile_clb_physical__fabric_0.mux_fabric_out_0.mux_l1_in_0_/A1
+ Test_en clkbuf_1_1_0_clk/X VGND VGND VPWR VPWR sky130_fd_sc_hd__sdfxtp_1
X_46_ _46_/HI _46_/LO VGND VGND VPWR VPWR sky130_fd_sc_hd__conb_1
Xltile_clb_mode_0.ltile_clb_mode_fle_4.ltile_clb_physical__fabric_0.ltile_clb__frac_logic_0.ltile_clb_frac_lut4_0.frac_lut4_0_.frac_lut4_mux_0_.mux_l1_in_3_
+ ltile_clb_mode_0.ltile_clb_mode_fle_4.ltile_clb_physical__fabric_0.ltile_clb__frac_logic_0.ltile_clb_frac_lut4_0.frac_lut4_0_.frac_lut4_mux_0_.mux_l1_in_3_/A0
+ ltile_clb_mode_0.ltile_clb_mode_fle_4.ltile_clb_physical__fabric_0.ltile_clb__frac_logic_0.ltile_clb_frac_lut4_0.frac_lut4_0_.frac_lut4_mux_0_.mux_l1_in_3_/A1
+ ltile_clb_mode_0.ltile_clb_mode_fle_4.ltile_clb_physical__fabric_0.ltile_clb__frac_logic_0.ltile_clb_frac_lut4_0.frac_lut4_0_.sky130_fd_sc_hd__buf_2_0_/X
+ ltile_clb_mode_0.ltile_clb_mode_fle_4.ltile_clb_physical__fabric_0.ltile_clb__frac_logic_0.ltile_clb_frac_lut4_0.frac_lut4_0_.frac_lut4_mux_0_.mux_l1_in_3_/X
+ VGND VGND VPWR VPWR sky130_fd_sc_hd__mux2_1