* NGSPICE file created from grid_clb.ext - technology: EFS8A

* Black-box entry subcircuit for scs8hd_decap_12 abstract view
.subckt scs8hd_decap_12 vgnd vpwr
.ends

* Black-box entry subcircuit for scs8hd_diode_2 abstract view
.subckt scs8hd_diode_2 DIODE vgnd vpwr
.ends

* Black-box entry subcircuit for scs8hd_fill_2 abstract view
.subckt scs8hd_fill_2 vpwr vgnd
.ends

* Black-box entry subcircuit for scs8hd_decap_3 abstract view
.subckt scs8hd_decap_3 vgnd vpwr
.ends

* Black-box entry subcircuit for scs8hd_ebufn_2 abstract view
.subckt scs8hd_ebufn_2 A TEB Z vgnd vpwr
.ends

* Black-box entry subcircuit for scs8hd_decap_8 abstract view
.subckt scs8hd_decap_8 vgnd vpwr
.ends

* Black-box entry subcircuit for scs8hd_decap_4 abstract view
.subckt scs8hd_decap_4 vgnd vpwr
.ends

* Black-box entry subcircuit for scs8hd_nor2_4 abstract view
.subckt scs8hd_nor2_4 A B Y vgnd vpwr
.ends

* Black-box entry subcircuit for scs8hd_buf_1 abstract view
.subckt scs8hd_buf_1 A X vgnd vpwr
.ends

* Black-box entry subcircuit for scs8hd_decap_6 abstract view
.subckt scs8hd_decap_6 vgnd vpwr
.ends

* Black-box entry subcircuit for scs8hd_inv_1 abstract view
.subckt scs8hd_inv_1 A Y vgnd vpwr
.ends

* Black-box entry subcircuit for scs8hd_fill_1 abstract view
.subckt scs8hd_fill_1 vgnd vpwr
.ends

* Black-box entry subcircuit for scs8hd_lpflow_inputisolatch_1 abstract view
.subckt scs8hd_lpflow_inputisolatch_1 D Q SLEEPB vgnd vpwr
.ends

* Black-box entry subcircuit for scs8hd_or4_4 abstract view
.subckt scs8hd_or4_4 A B C D X vgnd vpwr
.ends

* Black-box entry subcircuit for scs8hd_tapvpwrvgnd_1 abstract view
.subckt scs8hd_tapvpwrvgnd_1 vgnd vpwr
.ends

* Black-box entry subcircuit for scs8hd_conb_1 abstract view
.subckt scs8hd_conb_1 HI LO vgnd vpwr
.ends

* Black-box entry subcircuit for scs8hd_or2_4 abstract view
.subckt scs8hd_or2_4 A B X vgnd vpwr
.ends

* Black-box entry subcircuit for scs8hd_inv_8 abstract view
.subckt scs8hd_inv_8 A Y vgnd vpwr
.ends

* Black-box entry subcircuit for scs8hd_or3_4 abstract view
.subckt scs8hd_or3_4 A B C X vgnd vpwr
.ends

* Black-box entry subcircuit for scs8hd_dfbbp_1 abstract view
.subckt scs8hd_dfbbp_1 CLK D Q QN RESETB SETB vgnd vpwr
.ends

* Black-box entry subcircuit for scs8hd_clkbuf_16 abstract view
.subckt scs8hd_clkbuf_16 A X vgnd vpwr
.ends

* Black-box entry subcircuit for scs8hd_clkbuf_1 abstract view
.subckt scs8hd_clkbuf_1 A X vgnd vpwr
.ends

* Black-box entry subcircuit for scs8hd_nand2_4 abstract view
.subckt scs8hd_nand2_4 A B Y vgnd vpwr
.ends

.subckt grid_clb address[0] address[1] address[2] address[3] address[4] address[5]
+ address[6] address[7] address[8] address[9] bottom_width_0_height_0__pin_10_ bottom_width_0_height_0__pin_14_
+ bottom_width_0_height_0__pin_2_ bottom_width_0_height_0__pin_6_ clk data_in enable
+ left_width_0_height_0__pin_11_ left_width_0_height_0__pin_3_ left_width_0_height_0__pin_7_
+ reset right_width_0_height_0__pin_13_ right_width_0_height_0__pin_1_ right_width_0_height_0__pin_5_
+ right_width_0_height_0__pin_9_ set top_width_0_height_0__pin_0_ top_width_0_height_0__pin_12_
+ top_width_0_height_0__pin_4_ top_width_0_height_0__pin_8_ vpwr vgnd
XFILLER_79_391 vgnd vpwr scs8hd_decap_12
XFILLER_36_19 vgnd vpwr scs8hd_decap_12
XANTENNA_ltile_clb_0.ltile_clb_fle_1.ltile_clb_n1_lut4__ble4_0.logical_tile_clb_mode_default__fle_mode_n1_lut4__ble4_mode_default__lut4_0.lut4_0_.buf4_2_.scs8hd_buf_1_A
+ ltile_clb_0.mux_fle_1_in_2.INVTX1_14_.scs8hd_inv_1/Y vgnd vpwr scs8hd_diode_2
XFILLER_54_225 vpwr vgnd scs8hd_fill_2
XANTENNA_ltile_clb_0.mem_fle_3_in_2.LATCH_7_.latch_D data_in vgnd vpwr scs8hd_diode_2
XFILLER_35_461 vgnd vpwr scs8hd_decap_3
Xltile_clb_0.ltile_clb_fle_2.ltile_clb_n1_lut4__ble4_0.logical_tile_clb_mode_default__fle_mode_n1_lut4__ble4_mode_default__lut4_0.lut4_0_.lut4_mux_0_.mux_l1_in_6_.TGATE_0_.scs8hd_ebufn_2
+ ltile_clb_0.ltile_clb_fle_2.ltile_clb_n1_lut4__ble4_0.logical_tile_clb_mode_default__fle_mode_n1_lut4__ble4_mode_default__lut4_0.lut4_0_.lut4_mux_0_.INVTX1_12_.scs8hd_inv_1/Y
+ _613_/Y ltile_clb_0.ltile_clb_fle_2.ltile_clb_n1_lut4__ble4_0.logical_tile_clb_mode_default__fle_mode_n1_lut4__ble4_mode_default__lut4_0.lut4_0_.lut4_mux_0_.mux_l2_in_3_.TGATE_0_.scs8hd_ebufn_2/A
+ vgnd vpwr scs8hd_ebufn_2
XANTENNA_ltile_clb_0.mux_fle_2_in_3.mux_l2_in_0_.TGATE_2_.scs8hd_ebufn_2_A ltile_clb_0.mux_fle_2_in_3.mux_l1_in_2_.TGATE_1_.scs8hd_ebufn_2/Z
+ vgnd vpwr scs8hd_diode_2
XFILLER_77_15 vgnd vpwr scs8hd_decap_12
XANTENNA_ltile_clb_0.mem_fle_3_in_3.LATCH_5_.latch_D data_in vgnd vpwr scs8hd_diode_2
XFILLER_77_328 vgnd vpwr scs8hd_decap_12
XFILLER_77_306 vgnd vpwr scs8hd_decap_12
XFILLER_77_59 vpwr vgnd scs8hd_fill_2
XANTENNA_ltile_clb_0.mem_fle_0_in_0.LATCH_7_.latch_SLEEPB _518_/Y vgnd vpwr scs8hd_diode_2
XFILLER_73_501 vgnd vpwr scs8hd_decap_12
XFILLER_45_214 vpwr vgnd scs8hd_fill_2
XFILLER_26_41 vgnd vpwr scs8hd_decap_8
XFILLER_33_409 vgnd vpwr scs8hd_decap_4
X_501_ _523_/A _499_/B _501_/Y vgnd vpwr scs8hd_nor2_4
X_432_ _454_/A _429_/X _432_/Y vgnd vpwr scs8hd_nor2_4
XANTENNA_ltile_clb_0.ltile_clb_fle_1.ltile_clb_n1_lut4__ble4_0.logical_tile_clb_mode_default__fle_mode_n1_lut4__ble4_mode_default__lut4_0.lut4_0_.lut4_mux_0_.mux_l1_in_3_.TGATE_0_.scs8hd_ebufn_2_TEB
+ _621_/Y vgnd vpwr scs8hd_diode_2
XFILLER_41_442 vpwr vgnd scs8hd_fill_2
X_363_ _328_/X _360_/X _363_/Y vgnd vpwr scs8hd_nor2_4
X_294_ _294_/A _294_/X vgnd vpwr scs8hd_buf_1
XFILLER_42_84 vgnd vpwr scs8hd_decap_6
XFILLER_5_354 vgnd vpwr scs8hd_decap_12
XANTENNA_ltile_clb_0.ltile_clb_fle_3.ltile_clb_n1_lut4__ble4_0.logical_tile_clb_mode_default__fle_mode_n1_lut4__ble4_mode_default__lut4_0.lut4_0_.lut4_mux_0_.INVTX1_3_.scs8hd_inv_1_A
+ ltile_clb_0.ltile_clb_fle_3.ltile_clb_n1_lut4__ble4_0.logical_tile_clb_mode_default__fle_mode_n1_lut4__ble4_mode_default__lut4_0.lut4_LATCH_mem.LATCH_3_.latch/Q
+ vgnd vpwr scs8hd_diode_2
XANTENNA_ltile_clb_0.mux_fle_1_in_3.mux_l1_in_1_.TGATE_2_.scs8hd_ebufn_2_A ltile_clb_0.mux_fle_1_in_3.INVTX1_6_.scs8hd_inv_1/Y
+ vgnd vpwr scs8hd_diode_2
XFILLER_68_328 vpwr vgnd scs8hd_fill_2
XFILLER_76_394 vgnd vpwr scs8hd_decap_3
XANTENNA_ltile_clb_0.ltile_clb_fle_1.ltile_clb_n1_lut4__ble4_0.logical_tile_clb_mode_default__fle_mode_n1_lut4__ble4_mode_default__lut4_0.lut4_0_.lut4_mux_0_.mux_l3_in_1_.TGATE_1_.scs8hd_ebufn_2_A
+ ltile_clb_0.ltile_clb_fle_1.ltile_clb_n1_lut4__ble4_0.logical_tile_clb_mode_default__fle_mode_n1_lut4__ble4_mode_default__lut4_0.lut4_0_.lut4_mux_0_.mux_l3_in_1_.TGATE_1_.scs8hd_ebufn_2/A
+ vgnd vpwr scs8hd_diode_2
XFILLER_36_269 vgnd vpwr scs8hd_decap_6
XFILLER_44_291 vpwr vgnd scs8hd_fill_2
Xltile_clb_0.ltile_clb_fle_3.ltile_clb_n1_lut4__ble4_0.logical_tile_clb_mode_default__fle_mode_n1_lut4__ble4_mode_default__lut4_0.lut4_0_.lut4_mux_0_.INVTX1_3_.scs8hd_inv_1
+ ltile_clb_0.ltile_clb_fle_3.ltile_clb_n1_lut4__ble4_0.logical_tile_clb_mode_default__fle_mode_n1_lut4__ble4_mode_default__lut4_0.lut4_LATCH_mem.LATCH_3_.latch/Q
+ ltile_clb_0.ltile_clb_fle_3.ltile_clb_n1_lut4__ble4_0.logical_tile_clb_mode_default__fle_mode_n1_lut4__ble4_mode_default__lut4_0.lut4_0_.lut4_mux_0_.INVTX1_3_.scs8hd_inv_1/Y
+ vgnd vpwr scs8hd_inv_1
Xltile_clb_0.mux_fle_2_in_1.INVTX1_5_.scs8hd_inv_1 right_width_0_height_0__pin_5_
+ ltile_clb_0.mux_fle_2_in_1.INVTX1_5_.scs8hd_inv_1/Y vgnd vpwr scs8hd_inv_1
XANTENNA__304__A _301_/A vgnd vpwr scs8hd_diode_2
Xltile_clb_0.mux_fle_0_in_1.mux_l2_in_0_.TGATE_3_.scs8hd_ebufn_2 ltile_clb_0.mux_fle_0_in_1.mux_l1_in_3_.TGATE_2_.scs8hd_ebufn_2/Z
+ ltile_clb_0.mem_fle_0_in_1.LATCH_7_.latch/Q ltile_clb_0.mux_fle_0_in_1.INVTX1_14_.scs8hd_inv_1/A
+ vgnd vpwr scs8hd_ebufn_2
XFILLER_55_501 vgnd vpwr scs8hd_decap_12
XFILLER_67_383 vpwr vgnd scs8hd_fill_2
XANTENNA__396__D _471_/D vgnd vpwr scs8hd_diode_2
XFILLER_82_342 vgnd vpwr scs8hd_decap_12
XFILLER_70_515 vgnd vpwr scs8hd_fill_1
XFILLER_63_39 vgnd vpwr scs8hd_decap_8
XANTENNA_ltile_clb_0.ltile_clb_fle_0.ltile_clb_n1_lut4__ble4_0.mux_ble4_out_0.mux_l1_in_0_.TGATE_0_.scs8hd_ebufn_2_A
+ ltile_clb_0.ltile_clb_fle_0.ltile_clb_n1_lut4__ble4_0.mux_ble4_out_0.INVTX1_0_.scs8hd_inv_1/Y
+ vgnd vpwr scs8hd_diode_2
XFILLER_42_206 vgnd vpwr scs8hd_decap_8
XFILLER_82_397 vgnd vpwr scs8hd_decap_6
Xltile_clb_0.ltile_clb_fle_1.ltile_clb_n1_lut4__ble4_0.logical_tile_clb_mode_default__fle_mode_n1_lut4__ble4_mode_default__lut4_0.lut4_0_.lut4_mux_0_.mux_l1_in_2_.TGATE_1_.scs8hd_ebufn_2
+ ltile_clb_0.ltile_clb_fle_1.ltile_clb_n1_lut4__ble4_0.logical_tile_clb_mode_default__fle_mode_n1_lut4__ble4_mode_default__lut4_0.lut4_0_.lut4_mux_0_.INVTX1_5_.scs8hd_inv_1/Y
+ _620_/Y ltile_clb_0.ltile_clb_fle_1.ltile_clb_n1_lut4__ble4_0.logical_tile_clb_mode_default__fle_mode_n1_lut4__ble4_mode_default__lut4_0.lut4_0_.lut4_mux_0_.mux_l2_in_1_.TGATE_0_.scs8hd_ebufn_2/A
+ vgnd vpwr scs8hd_ebufn_2
XANTENNA_ltile_clb_0.mux_fle_3_in_0.mux_l1_in_0_.TGATE_2_.scs8hd_ebufn_2_TEB ltile_clb_0.mem_fle_3_in_0.LATCH_2_.latch/Q
+ vgnd vpwr scs8hd_diode_2
XFILLER_12_32 vgnd vpwr scs8hd_decap_12
XFILLER_6_129 vgnd vpwr scs8hd_decap_12
XANTENNA_ltile_clb_0.mux_fle_0_in_2.INVTX1_7_.scs8hd_inv_1_A left_width_0_height_0__pin_7_
+ vgnd vpwr scs8hd_diode_2
Xltile_clb_0.ltile_clb_fle_0.ltile_clb_n1_lut4__ble4_0.logical_tile_clb_mode_default__fle_mode_n1_lut4__ble4_mode_default__lut4_0.lut4_0_.lut4_mux_0_.INVTX1_14_.scs8hd_inv_1
+ ltile_clb_0.ltile_clb_fle_0.ltile_clb_n1_lut4__ble4_0.logical_tile_clb_mode_default__fle_mode_n1_lut4__ble4_mode_default__lut4_0.lut4_LATCH_mem.LATCH_14_.latch/Q
+ ltile_clb_0.ltile_clb_fle_0.ltile_clb_n1_lut4__ble4_0.logical_tile_clb_mode_default__fle_mode_n1_lut4__ble4_mode_default__lut4_0.lut4_0_.lut4_mux_0_.INVTX1_14_.scs8hd_inv_1/Y
+ vgnd vpwr scs8hd_inv_1
XFILLER_2_324 vgnd vpwr scs8hd_decap_12
XFILLER_77_147 vgnd vpwr scs8hd_decap_12
XANTENNA_ltile_clb_0.ltile_clb_fle_1.ltile_clb_n1_lut4__ble4_0.logical_tile_clb_mode_default__fle_mode_n1_lut4__ble4_mode_default__lut4_0.lut4_0_.lut4_mux_0_.INVTX1_13_.scs8hd_inv_1_A
+ ltile_clb_0.ltile_clb_fle_1.ltile_clb_n1_lut4__ble4_0.logical_tile_clb_mode_default__fle_mode_n1_lut4__ble4_mode_default__lut4_0.lut4_LATCH_mem.LATCH_13_.latch/Q
+ vgnd vpwr scs8hd_diode_2
Xltile_clb_0.ltile_clb_fle_3.ltile_clb_n1_lut4__ble4_0.logical_tile_clb_mode_default__fle_mode_n1_lut4__ble4_mode_default__lut4_0.lut4_LATCH_mem.LATCH_0_.latch
+ data_in ltile_clb_0.ltile_clb_fle_3.ltile_clb_n1_lut4__ble4_0.logical_tile_clb_mode_default__fle_mode_n1_lut4__ble4_mode_default__lut4_0.lut4_LATCH_mem.LATCH_0_.latch/Q
+ _546_/Y vgnd vpwr scs8hd_lpflow_inputisolatch_1
XFILLER_37_51 vpwr vgnd scs8hd_fill_2
XFILLER_73_353 vpwr vgnd scs8hd_fill_2
XFILLER_73_342 vpwr vgnd scs8hd_fill_2
XFILLER_18_236 vgnd vpwr scs8hd_fill_1
XFILLER_73_397 vpwr vgnd scs8hd_fill_2
X_415_ _509_/A _454_/A vgnd vpwr scs8hd_buf_1
XFILLER_53_50 vgnd vpwr scs8hd_decap_4
X_346_ address[8] _383_/B _320_/C _471_/D _346_/X vgnd vpwr scs8hd_or4_4
Xltile_clb_0.mux_fle_2_in_2.mux_l1_in_2_.TGATE_1_.scs8hd_ebufn_2 ltile_clb_0.mux_fle_2_in_2.INVTX1_9_.scs8hd_inv_1/Y
+ ltile_clb_0.mem_fle_2_in_2.LATCH_1_.latch/Q ltile_clb_0.mux_fle_2_in_2.mux_l1_in_2_.TGATE_0_.scs8hd_ebufn_2/Z
+ vgnd vpwr scs8hd_ebufn_2
Xltile_clb_0.mux_fle_0_in_2.mux_l1_in_3_.TGATE_2_.scs8hd_ebufn_2 _642_/HI ltile_clb_0.mem_fle_0_in_2.LATCH_2_.latch/Q
+ ltile_clb_0.mux_fle_0_in_2.mux_l2_in_0_.TGATE_3_.scs8hd_ebufn_2/A vgnd vpwr scs8hd_ebufn_2
X_277_ _277_/A _590_/A _277_/Y vgnd vpwr scs8hd_nor2_4
XANTENNA_ltile_clb_0.ltile_clb_fle_0.ltile_clb_n1_lut4__ble4_0.logical_tile_clb_mode_default__fle_mode_n1_lut4__ble4_mode_default__lut4_0.lut4_0_.lut4_mux_0_.mux_l1_in_4_.TGATE_0_.scs8hd_ebufn_2_A
+ ltile_clb_0.ltile_clb_fle_0.ltile_clb_n1_lut4__ble4_0.logical_tile_clb_mode_default__fle_mode_n1_lut4__ble4_mode_default__lut4_0.lut4_0_.lut4_mux_0_.INVTX1_8_.scs8hd_inv_1/Y
+ vgnd vpwr scs8hd_diode_2
XFILLER_5_184 vgnd vpwr scs8hd_decap_12
Xltile_clb_0.mux_fle_3_in_2.INVTX1_0_.scs8hd_inv_1 top_width_0_height_0__pin_0_ ltile_clb_0.mux_fle_3_in_2.INVTX1_0_.scs8hd_inv_1/Y
+ vgnd vpwr scs8hd_inv_1
XFILLER_78_80 vgnd vpwr scs8hd_decap_12
XFILLER_68_169 vgnd vpwr scs8hd_decap_12
XANTENNA_ltile_clb_0.mux_fle_1_in_3.INVTX1_4_.scs8hd_inv_1_A top_width_0_height_0__pin_4_
+ vgnd vpwr scs8hd_diode_2
XFILLER_37_501 vgnd vpwr scs8hd_decap_12
XFILLER_49_394 vpwr vgnd scs8hd_fill_2
XFILLER_64_364 vgnd vpwr scs8hd_decap_3
XFILLER_52_515 vgnd vpwr scs8hd_fill_1
XANTENNA_ltile_clb_0.ltile_clb_fle_2.ltile_clb_n1_lut4__ble4_0.logical_tile_clb_mode_default__fle_mode_n1_lut4__ble4_mode_default__lut4_0.lut4_LATCH_mem.LATCH_1_.latch_SLEEPB
+ _571_/Y vgnd vpwr scs8hd_diode_2
XANTENNA_ltile_clb_0.mux_fle_2_in_0.INVTX1_0_.scs8hd_inv_1_A top_width_0_height_0__pin_0_
+ vgnd vpwr scs8hd_diode_2
XFILLER_20_401 vpwr vgnd scs8hd_fill_2
Xltile_clb_0.mux_fle_2_in_2.INVTX1_9_.scs8hd_inv_1 right_width_0_height_0__pin_9_
+ ltile_clb_0.mux_fle_2_in_2.INVTX1_9_.scs8hd_inv_1/Y vgnd vpwr scs8hd_inv_1
XFILLER_59_103 vpwr vgnd scs8hd_fill_2
XFILLER_59_114 vpwr vgnd scs8hd_fill_2
XFILLER_74_117 vgnd vpwr scs8hd_decap_12
Xltile_clb_0.ltile_clb_fle_1.ltile_clb_n1_lut4__ble4_0.logical_tile_clb_mode_default__fle_mode_n1_lut4__ble4_mode_default__lut4_0.lut4_0_.lut4_mux_0_.INVTX1_8_.scs8hd_inv_1
+ ltile_clb_0.ltile_clb_fle_1.ltile_clb_n1_lut4__ble4_0.logical_tile_clb_mode_default__fle_mode_n1_lut4__ble4_mode_default__lut4_0.lut4_LATCH_mem.LATCH_8_.latch/Q
+ ltile_clb_0.ltile_clb_fle_1.ltile_clb_n1_lut4__ble4_0.logical_tile_clb_mode_default__fle_mode_n1_lut4__ble4_mode_default__lut4_0.lut4_0_.lut4_mux_0_.INVTX1_8_.scs8hd_inv_1/Y
+ vgnd vpwr scs8hd_inv_1
XFILLER_74_27 vgnd vpwr scs8hd_decap_4
XFILLER_67_180 vgnd vpwr scs8hd_decap_3
XFILLER_55_386 vpwr vgnd scs8hd_fill_2
XPHY_702 vgnd vpwr scs8hd_tapvpwrvgnd_1
XANTENNA_ltile_clb_0.mem_fle_0_in_3.LATCH_0_.latch_SLEEPB _492_/Y vgnd vpwr scs8hd_diode_2
XPHY_735 vgnd vpwr scs8hd_tapvpwrvgnd_1
XPHY_724 vgnd vpwr scs8hd_tapvpwrvgnd_1
XPHY_713 vgnd vpwr scs8hd_tapvpwrvgnd_1
XPHY_768 vgnd vpwr scs8hd_tapvpwrvgnd_1
XPHY_757 vgnd vpwr scs8hd_tapvpwrvgnd_1
XPHY_746 vgnd vpwr scs8hd_tapvpwrvgnd_1
XFILLER_11_423 vgnd vpwr scs8hd_decap_4
XPHY_779 vgnd vpwr scs8hd_tapvpwrvgnd_1
XFILLER_11_489 vgnd vpwr scs8hd_decap_12
XFILLER_23_75 vgnd vpwr scs8hd_fill_1
XANTENNA_ltile_clb_0.mux_fle_0_in_2.mux_l1_in_3_.TGATE_0_.scs8hd_ebufn_2_TEB ltile_clb_0.mem_fle_0_in_2.LATCH_0_.latch/Q
+ vgnd vpwr scs8hd_diode_2
Xltile_clb_0.mem_fle_0_in_1.LATCH_2_.latch data_in ltile_clb_0.mem_fle_0_in_1.LATCH_2_.latch/Q
+ _512_/Y vgnd vpwr scs8hd_lpflow_inputisolatch_1
XFILLER_2_154 vgnd vpwr scs8hd_decap_12
XFILLER_78_434 vgnd vpwr scs8hd_decap_12
XANTENNA__598__B _581_/A vgnd vpwr scs8hd_diode_2
XANTENNA_ltile_clb_0.mux_fle_3_in_3.mux_l1_in_1_.TGATE_2_.scs8hd_ebufn_2_TEB ltile_clb_0.mem_fle_3_in_3.LATCH_2_.latch/Q
+ vgnd vpwr scs8hd_diode_2
XFILLER_19_501 vgnd vpwr scs8hd_decap_12
XFILLER_61_301 vpwr vgnd scs8hd_fill_2
XFILLER_34_515 vgnd vpwr scs8hd_fill_1
Xltile_clb_0.mem_fle_1_in_1.LATCH_1_.latch data_in ltile_clb_0.mem_fle_1_in_1.LATCH_1_.latch/Q
+ _469_/Y vgnd vpwr scs8hd_lpflow_inputisolatch_1
XFILLER_64_71 vgnd vpwr scs8hd_decap_12
XFILLER_61_345 vpwr vgnd scs8hd_fill_2
XFILLER_61_367 vpwr vgnd scs8hd_fill_2
XFILLER_61_389 vpwr vgnd scs8hd_fill_2
XANTENNA_ltile_clb_0.ltile_clb_fle_2.ltile_clb_n1_lut4__ble4_0.logical_tile_clb_mode_default__fle_mode_n1_lut4__ble4_mode_default__lut4_0.lut4_0_.lut4_mux_0_.INVTX1_5_.scs8hd_inv_1_A
+ ltile_clb_0.ltile_clb_fle_2.ltile_clb_n1_lut4__ble4_0.logical_tile_clb_mode_default__fle_mode_n1_lut4__ble4_mode_default__lut4_0.lut4_LATCH_mem.LATCH_5_.latch/Q
+ vgnd vpwr scs8hd_diode_2
X_329_ _328_/X _322_/X _329_/Y vgnd vpwr scs8hd_nor2_4
XANTENNA_ltile_clb_0.mux_fle_3_in_3.INVTX1_10_.scs8hd_inv_1_A bottom_width_0_height_0__pin_10_
+ vgnd vpwr scs8hd_diode_2
Xltile_clb_0.mux_fle_3_in_3.INVTX1_4_.scs8hd_inv_1 top_width_0_height_0__pin_4_ ltile_clb_0.mux_fle_3_in_3.INVTX1_4_.scs8hd_inv_1/Y
+ vgnd vpwr scs8hd_inv_1
XFILLER_6_471 vgnd vpwr scs8hd_decap_12
Xltile_clb_0.mem_fle_2_in_1.LATCH_0_.latch data_in ltile_clb_0.mem_fle_2_in_1.LATCH_0_.latch/Q
+ _426_/Y vgnd vpwr scs8hd_lpflow_inputisolatch_1
XFILLER_50_3 vgnd vpwr scs8hd_decap_12
XANTENNA_ltile_clb_0.ltile_clb_fle_0.ltile_clb_n1_lut4__ble4_0.logical_tile_clb_mode_default__fle_mode_n1_lut4__ble4_mode_default__lut4_0.lut4_0_.lut4_mux_0_.mux_l1_in_6_.TGATE_1_.scs8hd_ebufn_2_A
+ ltile_clb_0.ltile_clb_fle_0.ltile_clb_n1_lut4__ble4_0.logical_tile_clb_mode_default__fle_mode_n1_lut4__ble4_mode_default__lut4_0.lut4_0_.lut4_mux_0_.INVTX1_13_.scs8hd_inv_1/Y
+ vgnd vpwr scs8hd_diode_2
XFILLER_69_478 vgnd vpwr scs8hd_decap_8
XANTENNA__301__B _597_/A vgnd vpwr scs8hd_diode_2
XFILLER_69_489 vgnd vpwr scs8hd_decap_12
Xltile_clb_0.mux_fle_0_in_0.mux_l1_in_2_.TGATE_0_.scs8hd_ebufn_2 ltile_clb_0.mux_fle_0_in_0.INVTX1_8_.scs8hd_inv_1/Y
+ ltile_clb_0.mem_fle_0_in_0.LATCH_0_.latch/Q ltile_clb_0.mux_fle_0_in_0.mux_l1_in_2_.TGATE_2_.scs8hd_ebufn_2/Z
+ vgnd vpwr scs8hd_ebufn_2
XFILLER_52_301 vgnd vpwr scs8hd_fill_1
XANTENNA_ltile_clb_0.mux_fle_0_in_3.mux_l1_in_2_.TGATE_0_.scs8hd_ebufn_2_A ltile_clb_0.mux_fle_0_in_3.INVTX1_8_.scs8hd_inv_1/Y
+ vgnd vpwr scs8hd_diode_2
XFILLER_20_253 vgnd vpwr scs8hd_decap_4
XFILLER_20_264 vgnd vpwr scs8hd_decap_8
XFILLER_69_27 vgnd vpwr scs8hd_decap_12
XANTENNA_ltile_clb_0.mux_fle_3_in_1.mux_l1_in_2_.TGATE_0_.scs8hd_ebufn_2_A ltile_clb_0.mux_fle_3_in_1.INVTX1_8_.scs8hd_inv_1/Y
+ vgnd vpwr scs8hd_diode_2
XANTENNA_ltile_clb_0.mem_fle_1_in_2.LATCH_0_.latch_SLEEPB _459_/Y vgnd vpwr scs8hd_diode_2
XFILLER_75_426 vgnd vpwr scs8hd_fill_1
Xltile_clb_0.ltile_clb_fle_0.ltile_clb_n1_lut4__ble4_0.logical_tile_clb_mode_default__fle_mode_n1_lut4__ble4_mode_default__lut4_0.lut4_0_.lut4_mux_0_.mux_l2_in_3_.TGATE_0_.scs8hd_ebufn_2
+ ltile_clb_0.ltile_clb_fle_0.ltile_clb_n1_lut4__ble4_0.logical_tile_clb_mode_default__fle_mode_n1_lut4__ble4_mode_default__lut4_0.lut4_0_.lut4_mux_0_.mux_l2_in_3_.TGATE_0_.scs8hd_ebufn_2/A
+ _631_/Y ltile_clb_0.ltile_clb_fle_0.ltile_clb_n1_lut4__ble4_0.logical_tile_clb_mode_default__fle_mode_n1_lut4__ble4_mode_default__lut4_0.lut4_0_.lut4_mux_0_.mux_l2_in_3_.TGATE_1_.scs8hd_ebufn_2/Z
+ vgnd vpwr scs8hd_ebufn_2
XFILLER_28_331 vpwr vgnd scs8hd_fill_2
XFILLER_28_342 vpwr vgnd scs8hd_fill_2
XFILLER_55_150 vgnd vpwr scs8hd_decap_4
XFILLER_16_504 vgnd vpwr scs8hd_decap_12
XFILLER_43_301 vpwr vgnd scs8hd_fill_2
XANTENNA_ltile_clb_0.ltile_clb_fle_3.ltile_clb_n1_lut4__ble4_0.logical_tile_clb_mode_default__fle_mode_n1_lut4__ble4_mode_default__lut4_0.lut4_0_.lut4_mux_0_.mux_l3_in_1_.TGATE_1_.scs8hd_ebufn_2_A
+ ltile_clb_0.ltile_clb_fle_3.ltile_clb_n1_lut4__ble4_0.logical_tile_clb_mode_default__fle_mode_n1_lut4__ble4_mode_default__lut4_0.lut4_0_.lut4_mux_0_.mux_l2_in_3_.TGATE_1_.scs8hd_ebufn_2/Z
+ vgnd vpwr scs8hd_diode_2
XFILLER_43_323 vpwr vgnd scs8hd_fill_2
XANTENNA_ltile_clb_0.ltile_clb_fle_2.ltile_clb_n1_lut4__ble4_0.logical_tile_clb_mode_default__fle_mode_n1_lut4__ble4_mode_default__lut4_0.lut4_LATCH_mem.LATCH_13_.latch_D
+ data_in vgnd vpwr scs8hd_diode_2
XPHY_510 vgnd vpwr scs8hd_tapvpwrvgnd_1
Xltile_clb_0.mem_fle_0_in_3.LATCH_5_.latch data_in ltile_clb_0.mem_fle_0_in_3.LATCH_5_.latch/Q
+ _487_/Y vgnd vpwr scs8hd_lpflow_inputisolatch_1
Xltile_clb_0.mux_fle_1_in_3.mux_l1_in_2_.TGATE_1_.scs8hd_ebufn_2 ltile_clb_0.mux_fle_1_in_3.INVTX1_9_.scs8hd_inv_1/Y
+ ltile_clb_0.mem_fle_1_in_3.LATCH_1_.latch/Q ltile_clb_0.mux_fle_1_in_3.mux_l1_in_2_.TGATE_1_.scs8hd_ebufn_2/Z
+ vgnd vpwr scs8hd_ebufn_2
Xltile_clb_0.ltile_clb_fle_1.ltile_clb_n1_lut4__ble4_0.logical_tile_clb_mode_default__fle_mode_n1_lut4__ble4_mode_default__lut4_0.lut4_0_.buf4_2_.scs8hd_buf_1
+ ltile_clb_0.mux_fle_1_in_2.INVTX1_14_.scs8hd_inv_1/Y _624_/A vgnd vpwr scs8hd_buf_1
XFILLER_34_41 vgnd vpwr scs8hd_decap_3
XPHY_521 vgnd vpwr scs8hd_tapvpwrvgnd_1
XFILLER_43_378 vpwr vgnd scs8hd_fill_2
XPHY_532 vgnd vpwr scs8hd_tapvpwrvgnd_1
XPHY_543 vgnd vpwr scs8hd_tapvpwrvgnd_1
XPHY_587 vgnd vpwr scs8hd_tapvpwrvgnd_1
XPHY_576 vgnd vpwr scs8hd_tapvpwrvgnd_1
XFILLER_11_231 vpwr vgnd scs8hd_fill_2
Xltile_clb_0.mux_fle_3_in_3.mux_l1_in_1_.TGATE_0_.scs8hd_ebufn_2 ltile_clb_0.mux_fle_3_in_3.INVTX1_4_.scs8hd_inv_1/Y
+ ltile_clb_0.mem_fle_3_in_3.LATCH_0_.latch/Q ltile_clb_0.mux_fle_3_in_3.mux_l1_in_1_.TGATE_0_.scs8hd_ebufn_2/Z
+ vgnd vpwr scs8hd_ebufn_2
XPHY_554 vgnd vpwr scs8hd_tapvpwrvgnd_1
XPHY_565 vgnd vpwr scs8hd_tapvpwrvgnd_1
XPHY_598 vgnd vpwr scs8hd_tapvpwrvgnd_1
XFILLER_7_257 vgnd vpwr scs8hd_decap_12
XANTENNA_ltile_clb_0.ltile_clb_fle_2.ltile_clb_n1_lut4__ble4_0.logical_tile_clb_mode_default__fle_mode_n1_lut4__ble4_mode_default__lut4_0.lut4_0_.lut4_mux_0_.mux_l3_in_0_.TGATE_0_.scs8hd_ebufn_2_TEB
+ _617_/Y vgnd vpwr scs8hd_diode_2
Xltile_clb_0.mem_fle_1_in_3.LATCH_4_.latch data_in ltile_clb_0.mem_fle_1_in_3.LATCH_4_.latch/Q
+ _444_/Y vgnd vpwr scs8hd_lpflow_inputisolatch_1
XFILLER_3_452 vgnd vpwr scs8hd_decap_12
XFILLER_59_60 vgnd vpwr scs8hd_fill_1
XANTENNA__402__A _391_/A vgnd vpwr scs8hd_diode_2
XFILLER_38_106 vpwr vgnd scs8hd_fill_2
XFILLER_66_448 vpwr vgnd scs8hd_fill_2
XFILLER_19_397 vpwr vgnd scs8hd_fill_2
Xltile_clb_0.mem_fle_2_in_3.LATCH_3_.latch data_in ltile_clb_0.mem_fle_2_in_3.LATCH_3_.latch/Q
+ _392_/Y vgnd vpwr scs8hd_lpflow_inputisolatch_1
XFILLER_61_131 vpwr vgnd scs8hd_fill_2
XFILLER_34_345 vgnd vpwr scs8hd_fill_1
Xltile_clb_0.mem_fle_3_in_3.LATCH_2_.latch data_in ltile_clb_0.mem_fle_3_in_3.LATCH_2_.latch/Q
+ _338_/Y vgnd vpwr scs8hd_lpflow_inputisolatch_1
XANTENNA__312__A _274_/B vgnd vpwr scs8hd_diode_2
XFILLER_57_404 vgnd vpwr scs8hd_decap_3
XFILLER_29_106 vgnd vpwr scs8hd_decap_3
XFILLER_69_297 vpwr vgnd scs8hd_fill_2
XFILLER_57_437 vpwr vgnd scs8hd_fill_2
Xltile_clb_0.mux_fle_3_in_0.mux_l1_in_0_.TGATE_3_.scs8hd_ebufn_2 ltile_clb_0.mux_fle_3_in_0.INVTX1_3_.scs8hd_inv_1/Y
+ ltile_clb_0.mem_fle_3_in_0.LATCH_3_.latch/Q ltile_clb_0.mux_fle_3_in_0.mux_l1_in_0_.TGATE_0_.scs8hd_ebufn_2/Z
+ vgnd vpwr scs8hd_ebufn_2
XFILLER_65_470 vgnd vpwr scs8hd_decap_12
XFILLER_25_301 vpwr vgnd scs8hd_fill_2
XFILLER_25_323 vgnd vpwr scs8hd_decap_4
XFILLER_25_367 vgnd vpwr scs8hd_decap_4
XFILLER_80_495 vgnd vpwr scs8hd_decap_12
XANTENNA_ltile_clb_0.mem_fle_2_in_1.LATCH_0_.latch_SLEEPB _426_/Y vgnd vpwr scs8hd_diode_2
XFILLER_52_164 vgnd vpwr scs8hd_decap_8
XFILLER_71_39 vgnd vpwr scs8hd_decap_12
XFILLER_40_337 vgnd vpwr scs8hd_decap_3
Xltile_clb_0.ltile_clb_fle_1.ltile_clb_n1_lut4__ble4_0.logical_tile_clb_mode_default__fle_mode_n1_lut4__ble4_mode_default__lut4_0.lut4_0_.lut4_mux_0_.INVTX1_14_.scs8hd_inv_1
+ ltile_clb_0.ltile_clb_fle_1.ltile_clb_n1_lut4__ble4_0.logical_tile_clb_mode_default__fle_mode_n1_lut4__ble4_mode_default__lut4_0.lut4_LATCH_mem.LATCH_14_.latch/Q
+ ltile_clb_0.ltile_clb_fle_1.ltile_clb_n1_lut4__ble4_0.logical_tile_clb_mode_default__fle_mode_n1_lut4__ble4_mode_default__lut4_0.lut4_0_.lut4_mux_0_.INVTX1_14_.scs8hd_inv_1/Y
+ vgnd vpwr scs8hd_inv_1
XANTENNA_ltile_clb_0.mux_fle_0_in_2.mux_l2_in_0_.TGATE_3_.scs8hd_ebufn_2_TEB ltile_clb_0.mem_fle_0_in_2.LATCH_7_.latch/Q
+ vgnd vpwr scs8hd_diode_2
XFILLER_4_227 vgnd vpwr scs8hd_decap_12
XFILLER_20_32 vgnd vpwr scs8hd_decap_4
XANTENNA_ltile_clb_0.ltile_clb_fle_2.ltile_clb_n1_lut4__ble4_0.logical_tile_clb_mode_default__fle_mode_n1_lut4__ble4_mode_default__lut4_0.lut4_0_.lut4_mux_0_.mux_l1_in_4_.TGATE_0_.scs8hd_ebufn_2_A
+ ltile_clb_0.ltile_clb_fle_2.ltile_clb_n1_lut4__ble4_0.logical_tile_clb_mode_default__fle_mode_n1_lut4__ble4_mode_default__lut4_0.lut4_0_.lut4_mux_0_.INVTX1_8_.scs8hd_inv_1/Y
+ vgnd vpwr scs8hd_diode_2
XFILLER_20_87 vgnd vpwr scs8hd_decap_4
Xltile_clb_0.ltile_clb_fle_2.ltile_clb_n1_lut4__ble4_0.mem_ble4_out_0.LATCH_0_.latch
+ data_in ltile_clb_0.ltile_clb_fle_2.ltile_clb_n1_lut4__ble4_0.mem_ble4_out_0.LATCH_0_.latch/Q
+ _577_/Y vgnd vpwr scs8hd_lpflow_inputisolatch_1
XFILLER_0_466 vgnd vpwr scs8hd_decap_12
XFILLER_48_404 vgnd vpwr scs8hd_fill_1
XFILLER_29_85 vpwr vgnd scs8hd_fill_2
XFILLER_48_437 vgnd vpwr scs8hd_decap_4
XFILLER_48_459 vgnd vpwr scs8hd_decap_12
XANTENNA_ltile_clb_0.ltile_clb_fle_0.ltile_clb_n1_lut4__ble4_0.logical_tile_clb_mode_default__fle_mode_n1_lut4__ble4_mode_default__lut4_0.lut4_LATCH_mem.LATCH_6_.latch_SLEEPB
+ _285_/Y vgnd vpwr scs8hd_diode_2
XFILLER_56_470 vgnd vpwr scs8hd_decap_12
X_594_ _594_/A _594_/B _594_/Y vgnd vpwr scs8hd_nor2_4
XANTENNA_ltile_clb_0.mux_fle_2_in_2.INVTX1_14_.scs8hd_inv_1_A ltile_clb_0.mux_fle_2_in_2.INVTX1_14_.scs8hd_inv_1/A
+ vgnd vpwr scs8hd_diode_2
XFILLER_45_73 vpwr vgnd scs8hd_fill_2
Xltile_clb_0.ltile_clb_fle_1.ltile_clb_n1_lut4__ble4_0.logical_tile_clb_mode_default__fle_mode_n1_lut4__ble4_mode_default__lut4_0.lut4_0_.lut4_mux_0_.mux_l4_in_0_.TGATE_0_.scs8hd_ebufn_2
+ ltile_clb_0.ltile_clb_fle_1.ltile_clb_n1_lut4__ble4_0.logical_tile_clb_mode_default__fle_mode_n1_lut4__ble4_mode_default__lut4_0.lut4_0_.lut4_mux_0_.mux_l4_in_0_.TGATE_0_.scs8hd_ebufn_2/A
+ _627_/Y ltile_clb_0.ltile_clb_fle_1.ltile_clb_n1_lut4__ble4_0.logical_tile_clb_mode_default__fle_mode_n1_lut4__ble4_mode_default__lut4_0.lut4_0_.lut4_mux_0_.INVTX1_16_.scs8hd_inv_1/A
+ vgnd vpwr scs8hd_ebufn_2
XFILLER_16_389 vpwr vgnd scs8hd_fill_2
XFILLER_43_175 vpwr vgnd scs8hd_fill_2
XFILLER_45_84 vpwr vgnd scs8hd_fill_2
XPHY_340 vgnd vpwr scs8hd_tapvpwrvgnd_1
XPHY_351 vgnd vpwr scs8hd_tapvpwrvgnd_1
XFILLER_43_197 vgnd vpwr scs8hd_decap_4
XPHY_362 vgnd vpwr scs8hd_tapvpwrvgnd_1
XPHY_373 vgnd vpwr scs8hd_tapvpwrvgnd_1
XPHY_384 vgnd vpwr scs8hd_tapvpwrvgnd_1
XPHY_395 vgnd vpwr scs8hd_tapvpwrvgnd_1
XANTENNA_ltile_clb_0.mux_fle_3_in_0.INVTX1_6_.scs8hd_inv_1_A bottom_width_0_height_0__pin_6_
+ vgnd vpwr scs8hd_diode_2
XFILLER_6_56 vgnd vpwr scs8hd_decap_12
Xltile_clb_0.mux_fle_1_in_0.INVTX1_13_.scs8hd_inv_1 right_width_0_height_0__pin_13_
+ ltile_clb_0.mux_fle_1_in_0.INVTX1_13_.scs8hd_inv_1/Y vgnd vpwr scs8hd_inv_1
XFILLER_3_293 vgnd vpwr scs8hd_decap_12
XFILLER_66_234 vgnd vpwr scs8hd_fill_1
XANTENNA_ltile_clb_0.ltile_clb_fle_1.ltile_clb_n1_lut4__ble4_0.logical_tile_clb_mode_default__fle_mode_n1_lut4__ble4_mode_default__lut4_0.lut4_0_.lut4_mux_0_.INVTX1_7_.scs8hd_inv_1_A
+ ltile_clb_0.ltile_clb_fle_1.ltile_clb_n1_lut4__ble4_0.logical_tile_clb_mode_default__fle_mode_n1_lut4__ble4_mode_default__lut4_0.lut4_LATCH_mem.LATCH_7_.latch/Q
+ vgnd vpwr scs8hd_diode_2
XFILLER_13_3 vgnd vpwr scs8hd_decap_12
XANTENNA_ltile_clb_0.mux_fle_3_in_2.mux_l1_in_1_.TGATE_2_.scs8hd_ebufn_2_A ltile_clb_0.mux_fle_3_in_2.INVTX1_6_.scs8hd_inv_1/Y
+ vgnd vpwr scs8hd_diode_2
XANTENNA_ltile_clb_0.ltile_clb_fle_1.ltile_clb_n1_lut4__ble4_0.logical_tile_clb_mode_default__fle_mode_n1_lut4__ble4_mode_default__lut4_0.lut4_0_.lut4_mux_0_.mux_l1_in_7_.TGATE_1_.scs8hd_ebufn_2_TEB
+ _620_/Y vgnd vpwr scs8hd_diode_2
XFILLER_62_462 vgnd vpwr scs8hd_decap_12
Xltile_clb_0.ltile_clb_fle_2.ltile_clb_n1_lut4__ble4_0.mux_ble4_out_0.mux_l1_in_0_.TGATE_0_.scs8hd_ebufn_2
+ ltile_clb_0.ltile_clb_fle_2.ltile_clb_n1_lut4__ble4_0.mux_ble4_out_0.INVTX1_0_.scs8hd_inv_1/Y
+ ltile_clb_0.ltile_clb_fle_2.ltile_clb_n1_lut4__ble4_0.mem_ble4_out_0.LATCH_0_.latch/Q
+ ltile_clb_0.ltile_clb_fle_2.ltile_clb_n1_lut4__ble4_0.mux_ble4_out_0.tap_buf4_0_.scs8hd_inv_1/A
+ vgnd vpwr scs8hd_ebufn_2
Xltile_clb_0.mux_fle_0_in_0.INVTX1_0_.scs8hd_inv_1 top_width_0_height_0__pin_0_ ltile_clb_0.mux_fle_0_in_0.INVTX1_0_.scs8hd_inv_1/Y
+ vgnd vpwr scs8hd_inv_1
XANTENNA__307__A address[4] vgnd vpwr scs8hd_diode_2
XANTENNA_ltile_clb_0.mux_fle_1_in_0.mux_l1_in_0_.TGATE_2_.scs8hd_ebufn_2_A ltile_clb_0.mux_fle_1_in_0.INVTX1_2_.scs8hd_inv_1/Y
+ vgnd vpwr scs8hd_diode_2
XFILLER_1_208 vgnd vpwr scs8hd_decap_12
XANTENNA_ltile_clb_0.mux_fle_3_in_2.mux_l1_in_0_.TGATE_1_.scs8hd_ebufn_2_TEB ltile_clb_0.mem_fle_3_in_2.LATCH_1_.latch/Q
+ vgnd vpwr scs8hd_diode_2
XANTENNA_ltile_clb_0.mem_fle_3_in_0.LATCH_0_.latch_SLEEPB _379_/Y vgnd vpwr scs8hd_diode_2
XANTENNA_ltile_clb_0.ltile_clb_fle_2.ltile_clb_n1_lut4__ble4_0.logical_tile_clb_mode_default__fle_mode_n1_lut4__ble4_mode_default__lut4_0.lut4_0_.lut4_mux_0_.mux_l1_in_1_.TGATE_0_.scs8hd_ebufn_2_TEB
+ _613_/Y vgnd vpwr scs8hd_diode_2
XFILLER_57_201 vpwr vgnd scs8hd_fill_2
Xltile_clb_0.ltile_clb_fle_0.ltile_clb_n1_lut4__ble4_0.logical_tile_clb_mode_default__fle_mode_n1_lut4__ble4_mode_default__lut4_0.lut4_0_.lut4_mux_0_.INVTX1_1_.scs8hd_inv_1
+ ltile_clb_0.ltile_clb_fle_0.ltile_clb_n1_lut4__ble4_0.logical_tile_clb_mode_default__fle_mode_n1_lut4__ble4_mode_default__lut4_0.lut4_LATCH_mem.LATCH_1_.latch/Q
+ ltile_clb_0.ltile_clb_fle_0.ltile_clb_n1_lut4__ble4_0.logical_tile_clb_mode_default__fle_mode_n1_lut4__ble4_mode_default__lut4_0.lut4_0_.lut4_mux_0_.INVTX1_1_.scs8hd_inv_1/Y
+ vgnd vpwr scs8hd_inv_1
XFILLER_57_234 vpwr vgnd scs8hd_fill_2
XFILLER_57_212 vpwr vgnd scs8hd_fill_2
XFILLER_17_109 vpwr vgnd scs8hd_fill_2
XFILLER_72_215 vgnd vpwr scs8hd_decap_12
XFILLER_82_27 vgnd vpwr scs8hd_decap_4
XFILLER_25_175 vpwr vgnd scs8hd_fill_2
XANTENNA_ltile_clb_0.mux_fle_3_in_1.mux_l1_in_2_.TGATE_2_.scs8hd_ebufn_2_TEB ltile_clb_0.mem_fle_3_in_1.LATCH_2_.latch/Q
+ vgnd vpwr scs8hd_diode_2
XFILLER_31_31 vpwr vgnd scs8hd_fill_2
XFILLER_31_75 vpwr vgnd scs8hd_fill_2
XFILLER_0_230 vgnd vpwr scs8hd_decap_12
XANTENNA_ltile_clb_0.ltile_clb_fle_2.ltile_clb_n1_lut4__ble4_0.logical_tile_clb_mode_default__fle_mode_n1_lut4__ble4_mode_default__lut4_0.lut4_0_.lut4_mux_0_.mux_l1_in_6_.TGATE_1_.scs8hd_ebufn_2_A
+ ltile_clb_0.ltile_clb_fle_2.ltile_clb_n1_lut4__ble4_0.logical_tile_clb_mode_default__fle_mode_n1_lut4__ble4_mode_default__lut4_0.lut4_0_.lut4_mux_0_.INVTX1_13_.scs8hd_inv_1/Y
+ vgnd vpwr scs8hd_diode_2
XFILLER_36_407 vpwr vgnd scs8hd_fill_2
XFILLER_36_418 vgnd vpwr scs8hd_decap_8
XFILLER_48_267 vgnd vpwr scs8hd_decap_6
XANTENNA_ltile_clb_0.mem_fle_0_in_1.LATCH_1_.latch_SLEEPB _513_/Y vgnd vpwr scs8hd_diode_2
X_646_ _646_/HI _646_/LO vgnd vpwr scs8hd_conb_1
XFILLER_63_248 vpwr vgnd scs8hd_fill_2
XFILLER_16_164 vgnd vpwr scs8hd_decap_8
X_577_ _274_/B _574_/X _577_/Y vgnd vpwr scs8hd_nor2_4
XFILLER_71_292 vpwr vgnd scs8hd_fill_2
XFILLER_72_93 vgnd vpwr scs8hd_decap_12
XPHY_170 vgnd vpwr scs8hd_tapvpwrvgnd_1
XPHY_181 vgnd vpwr scs8hd_tapvpwrvgnd_1
XPHY_192 vgnd vpwr scs8hd_tapvpwrvgnd_1