* NGSPICE file created from grid_io_left.ext - technology: EFS8A

* Black-box entry subcircuit for scs8hd_decap_12 abstract view
.subckt scs8hd_decap_12 vgnd vpwr
.ends

* Black-box entry subcircuit for scs8hd_fill_2 abstract view
.subckt scs8hd_fill_2 vpwr vgnd
.ends

* Black-box entry subcircuit for scs8hd_decap_8 abstract view
.subckt scs8hd_decap_8 vgnd vpwr
.ends

* Black-box entry subcircuit for scs8hd_decap_4 abstract view
.subckt scs8hd_decap_4 vgnd vpwr
.ends

* Black-box entry subcircuit for scs8hd_tapvpwrvgnd_1 abstract view
.subckt scs8hd_tapvpwrvgnd_1 vgnd vpwr
.ends

* Black-box entry subcircuit for scs8hd_decap_3 abstract view
.subckt scs8hd_decap_3 vgnd vpwr
.ends

* Black-box entry subcircuit for scs8hd_decap_6 abstract view
.subckt scs8hd_decap_6 vgnd vpwr
.ends

* Black-box entry subcircuit for scs8hd_diode_2 abstract view
.subckt scs8hd_diode_2 DIODE vgnd vpwr
.ends

* Black-box entry subcircuit for scs8hd_fill_1 abstract view
.subckt scs8hd_fill_1 vgnd vpwr
.ends

* Black-box entry subcircuit for scs8hd_ebufn_1 abstract view
.subckt scs8hd_ebufn_1 A TEB Z vgnd vpwr
.ends

* Black-box entry subcircuit for scs8hd_lpflow_inputisolatch_1 abstract view
.subckt scs8hd_lpflow_inputisolatch_1 D Q SLEEPB vgnd vpwr
.ends

* Black-box entry subcircuit for scs8hd_and4_4 abstract view
.subckt scs8hd_and4_4 A B C D X vgnd vpwr
.ends

* Black-box entry subcircuit for scs8hd_inv_8 abstract view
.subckt scs8hd_inv_8 A Y vgnd vpwr
.ends

* Black-box entry subcircuit for scs8hd_buf_2 abstract view
.subckt scs8hd_buf_2 A X vgnd vpwr
.ends

* Black-box entry subcircuit for scs8hd_buf_1 abstract view
.subckt scs8hd_buf_1 A X vgnd vpwr
.ends

* Black-box entry subcircuit for scs8hd_nor4_4 abstract view
.subckt scs8hd_nor4_4 A B C D Y vgnd vpwr
.ends

.subckt grid_io_left address[0] address[1] address[2] address[3] data_in enable gfpga_pad_GPIO_PAD[0]
+ gfpga_pad_GPIO_PAD[1] gfpga_pad_GPIO_PAD[2] gfpga_pad_GPIO_PAD[3] gfpga_pad_GPIO_PAD[4]
+ gfpga_pad_GPIO_PAD[5] gfpga_pad_GPIO_PAD[6] gfpga_pad_GPIO_PAD[7] right_width_0_height_0__pin_0_
+ right_width_0_height_0__pin_10_ right_width_0_height_0__pin_11_ right_width_0_height_0__pin_12_
+ right_width_0_height_0__pin_13_ right_width_0_height_0__pin_14_ right_width_0_height_0__pin_15_
+ right_width_0_height_0__pin_1_ right_width_0_height_0__pin_2_ right_width_0_height_0__pin_3_
+ right_width_0_height_0__pin_4_ right_width_0_height_0__pin_5_ right_width_0_height_0__pin_6_
+ right_width_0_height_0__pin_7_ right_width_0_height_0__pin_8_ right_width_0_height_0__pin_9_
+ vpwr vgnd
XFILLER_77_15 vgnd vpwr scs8hd_decap_12
XFILLER_77_59 vpwr vgnd scs8hd_fill_2
XFILLER_172_3 vgnd vpwr scs8hd_decap_12
XFILLER_133_98 vgnd vpwr scs8hd_decap_12
XFILLER_158_105 vgnd vpwr scs8hd_decap_12
XFILLER_190_93 vgnd vpwr scs8hd_decap_12
XFILLER_179_39 vgnd vpwr scs8hd_decap_12
XFILLER_63_39 vgnd vpwr scs8hd_decap_12
XFILLER_12_32 vgnd vpwr scs8hd_decap_12
XFILLER_128_32 vgnd vpwr scs8hd_decap_12
XFILLER_92_117 vgnd vpwr scs8hd_decap_8
XFILLER_37_51 vgnd vpwr scs8hd_decap_8
XFILLER_37_62 vgnd vpwr scs8hd_decap_12
XFILLER_78_80 vgnd vpwr scs8hd_decap_12
XFILLER_114_56 vgnd vpwr scs8hd_decap_12
XFILLER_74_27 vgnd vpwr scs8hd_decap_4
XFILLER_74_117 vgnd vpwr scs8hd_decap_8
XPHY_768 vgnd vpwr scs8hd_tapvpwrvgnd_1
XPHY_757 vgnd vpwr scs8hd_tapvpwrvgnd_1
XPHY_746 vgnd vpwr scs8hd_tapvpwrvgnd_1
XPHY_735 vgnd vpwr scs8hd_tapvpwrvgnd_1
XPHY_724 vgnd vpwr scs8hd_tapvpwrvgnd_1
XPHY_713 vgnd vpwr scs8hd_tapvpwrvgnd_1
XPHY_702 vgnd vpwr scs8hd_tapvpwrvgnd_1
XFILLER_130_44 vgnd vpwr scs8hd_decap_12
XFILLER_90_15 vgnd vpwr scs8hd_decap_12
XFILLER_139_86 vgnd vpwr scs8hd_decap_12
XFILLER_135_3 vgnd vpwr scs8hd_decap_12
XFILLER_155_74 vgnd vpwr scs8hd_decap_12
XFILLER_2_121 vgnd vpwr scs8hd_decap_4
XFILLER_171_62 vgnd vpwr scs8hd_decap_12
XFILLER_171_51 vgnd vpwr scs8hd_decap_8
XFILLER_64_93 vgnd vpwr scs8hd_decap_12
XFILLER_50_3 vgnd vpwr scs8hd_decap_12
XFILLER_56_117 vgnd vpwr scs8hd_decap_8
XFILLER_69_27 vgnd vpwr scs8hd_decap_12
XFILLER_85_15 vgnd vpwr scs8hd_decap_12
XFILLER_85_59 vpwr vgnd scs8hd_fill_2
XFILLER_141_98 vgnd vpwr scs8hd_decap_12
XPHY_598 vgnd vpwr scs8hd_tapvpwrvgnd_1
XPHY_587 vgnd vpwr scs8hd_tapvpwrvgnd_1
XPHY_576 vgnd vpwr scs8hd_tapvpwrvgnd_1
XPHY_565 vgnd vpwr scs8hd_tapvpwrvgnd_1
XPHY_510 vgnd vpwr scs8hd_tapvpwrvgnd_1
XPHY_521 vgnd vpwr scs8hd_tapvpwrvgnd_1
XPHY_532 vgnd vpwr scs8hd_tapvpwrvgnd_1
XPHY_543 vgnd vpwr scs8hd_tapvpwrvgnd_1
XPHY_554 vgnd vpwr scs8hd_tapvpwrvgnd_1
XFILLER_38_117 vgnd vpwr scs8hd_decap_8
XFILLER_98_3 vgnd vpwr scs8hd_decap_12
XFILLER_187_39 vgnd vpwr scs8hd_decap_12
XFILLER_71_39 vgnd vpwr scs8hd_decap_12
XFILLER_136_32 vgnd vpwr scs8hd_decap_12
XFILLER_20_32 vgnd vpwr scs8hd_decap_12
XFILLER_29_74 vgnd vpwr scs8hd_decap_4
XFILLER_45_51 vgnd vpwr scs8hd_decap_8
XFILLER_45_62 vgnd vpwr scs8hd_decap_12
XPHY_373 vgnd vpwr scs8hd_decap_3
XPHY_362 vgnd vpwr scs8hd_decap_3
XPHY_351 vgnd vpwr scs8hd_decap_3
XPHY_340 vgnd vpwr scs8hd_decap_3
XPHY_395 vgnd vpwr scs8hd_tapvpwrvgnd_1
XPHY_384 vgnd vpwr scs8hd_tapvpwrvgnd_1
XFILLER_6_56 vgnd vpwr scs8hd_decap_12
XFILLER_13_3 vgnd vpwr scs8hd_decap_12
XFILLER_86_80 vgnd vpwr scs8hd_decap_12
XFILLER_106_68 vgnd vpwr scs8hd_decap_12
XFILLER_103_114 vpwr vgnd scs8hd_fill_2
XFILLER_122_56 vgnd vpwr scs8hd_decap_12
XFILLER_82_27 vgnd vpwr scs8hd_decap_4
XFILLER_15_98 vpwr vgnd scs8hd_fill_2
XFILLER_147_86 vgnd vpwr scs8hd_decap_12
XFILLER_31_86 vgnd vpwr scs8hd_decap_12
XFILLER_163_74 vgnd vpwr scs8hd_decap_12
XFILLER_176_117 vgnd vpwr scs8hd_decap_8
XFILLER_31_123 vpwr vgnd scs8hd_fill_2
XFILLER_72_93 vgnd vpwr scs8hd_decap_12
XPHY_170 vgnd vpwr scs8hd_decap_3
XFILLER_188_93 vgnd vpwr scs8hd_decap_12
XPHY_192 vgnd vpwr scs8hd_decap_3
XPHY_181 vgnd vpwr scs8hd_decap_3
XFILLER_100_117 vgnd vpwr scs8hd_decap_8
XFILLER_89_123 vpwr vgnd scs8hd_fill_2
XFILLER_77_27 vgnd vpwr scs8hd_decap_12
XFILLER_93_15 vgnd vpwr scs8hd_decap_12
XFILLER_165_3 vgnd vpwr scs8hd_decap_12
XFILLER_158_117 vgnd vpwr scs8hd_decap_8
XFILLER_93_59 vpwr vgnd scs8hd_fill_2
XFILLER_13_123 vpwr vgnd scs8hd_fill_2
XFILLER_80_3 vgnd vpwr scs8hd_decap_12
XFILLER_128_44 vgnd vpwr scs8hd_decap_12
XFILLER_12_44 vgnd vpwr scs8hd_decap_12
XFILLER_144_32 vgnd vpwr scs8hd_decap_12
XFILLER_77_115 vgnd vpwr scs8hd_decap_6
XFILLER_88_15 vgnd vpwr scs8hd_decap_12
XFILLER_37_74 vgnd vpwr scs8hd_decap_12
XFILLER_169_62 vgnd vpwr scs8hd_decap_12
XFILLER_169_51 vgnd vpwr scs8hd_decap_8
XFILLER_53_51 vgnd vpwr scs8hd_decap_8
XFILLER_53_62 vgnd vpwr scs8hd_decap_12
XFILLER_94_80 vgnd vpwr scs8hd_decap_12
XFILLER_114_68 vgnd vpwr scs8hd_decap_12
XPHY_769 vgnd vpwr scs8hd_tapvpwrvgnd_1
XPHY_758 vgnd vpwr scs8hd_tapvpwrvgnd_1
XPHY_747 vgnd vpwr scs8hd_tapvpwrvgnd_1
XPHY_736 vgnd vpwr scs8hd_tapvpwrvgnd_1
XPHY_725 vgnd vpwr scs8hd_tapvpwrvgnd_1
XPHY_714 vgnd vpwr scs8hd_tapvpwrvgnd_1
XPHY_703 vgnd vpwr scs8hd_tapvpwrvgnd_1
XFILLER_130_56 vgnd vpwr scs8hd_decap_12
XFILLER_90_27 vgnd vpwr scs8hd_decap_4
XFILLER_151_123 vpwr vgnd scs8hd_fill_2
XFILLER_139_98 vgnd vpwr scs8hd_decap_12
XFILLER_128_3 vgnd vpwr scs8hd_decap_12
XFILLER_23_98 vpwr vgnd scs8hd_fill_2
XFILLER_155_86 vgnd vpwr scs8hd_decap_12
XFILLER_171_74 vgnd vpwr scs8hd_decap_12
XFILLER_80_93 vgnd vpwr scs8hd_decap_12
XFILLER_43_3 vgnd vpwr scs8hd_decap_12
XFILLER_100_15 vgnd vpwr scs8hd_decap_12
XFILLER_133_123 vpwr vgnd scs8hd_fill_2
XFILLER_69_39 vgnd vpwr scs8hd_decap_12
XANTENNA_logical_tile_io_mode_io__4.logical_tile_io_mode_physical__iopad_0.GPIO_LATCH_mem.LATCH_0_.latch_SLEEPB
+ _10_/X vgnd vpwr scs8hd_diode_2
XFILLER_85_27 vgnd vpwr scs8hd_decap_12
XFILLER_18_32 vgnd vpwr scs8hd_decap_12
XPHY_500 vgnd vpwr scs8hd_tapvpwrvgnd_1
XPHY_599 vgnd vpwr scs8hd_tapvpwrvgnd_1
XPHY_588 vgnd vpwr scs8hd_tapvpwrvgnd_1
XPHY_577 vgnd vpwr scs8hd_tapvpwrvgnd_1
XPHY_566 vgnd vpwr scs8hd_tapvpwrvgnd_1
XPHY_511 vgnd vpwr scs8hd_tapvpwrvgnd_1
XPHY_522 vgnd vpwr scs8hd_tapvpwrvgnd_1
XPHY_533 vgnd vpwr scs8hd_tapvpwrvgnd_1
XPHY_544 vgnd vpwr scs8hd_tapvpwrvgnd_1
XPHY_555 vgnd vpwr scs8hd_tapvpwrvgnd_1
XFILLER_61_110 vgnd vpwr scs8hd_decap_12
XFILLER_115_123 vpwr vgnd scs8hd_fill_2
XFILLER_29_118 vgnd vpwr scs8hd_decap_4
XFILLER_136_44 vgnd vpwr scs8hd_decap_12
XFILLER_96_15 vgnd vpwr scs8hd_decap_12
XFILLER_20_44 vgnd vpwr scs8hd_decap_12
XFILLER_152_32 vgnd vpwr scs8hd_decap_12
XPHY_352 vgnd vpwr scs8hd_decap_3
XPHY_341 vgnd vpwr scs8hd_decap_3
XPHY_330 vgnd vpwr scs8hd_decap_3
XFILLER_43_110 vgnd vpwr scs8hd_decap_12
XFILLER_45_74 vgnd vpwr scs8hd_decap_12
XPHY_374 vgnd vpwr scs8hd_decap_3
XPHY_363 vgnd vpwr scs8hd_decap_3
XFILLER_177_62 vgnd vpwr scs8hd_decap_12
XFILLER_177_51 vgnd vpwr scs8hd_decap_8
XPHY_396 vgnd vpwr scs8hd_tapvpwrvgnd_1
XPHY_385 vgnd vpwr scs8hd_tapvpwrvgnd_1
XFILLER_61_51 vgnd vpwr scs8hd_decap_8
XFILLER_61_62 vgnd vpwr scs8hd_decap_12
XFILLER_6_68 vgnd vpwr scs8hd_decap_12
XFILLER_122_68 vgnd vpwr scs8hd_decap_12
XFILLER_25_110 vgnd vpwr scs8hd_decap_12
XFILLER_110_3 vgnd vpwr scs8hd_decap_12
XFILLER_147_98 vgnd vpwr scs8hd_decap_12
XFILLER_163_86 vgnd vpwr scs8hd_decap_12
XPHY_193 vgnd vpwr scs8hd_decap_3
XPHY_182 vgnd vpwr scs8hd_decap_3
XPHY_160 vgnd vpwr scs8hd_decap_3
XPHY_171 vgnd vpwr scs8hd_decap_3
XFILLER_22_102 vpwr vgnd scs8hd_fill_2
XFILLER_22_124 vgnd vpwr scs8hd_fill_1
XFILLER_77_39 vgnd vpwr scs8hd_decap_12
XFILLER_93_27 vgnd vpwr scs8hd_decap_12
XFILLER_26_32 vgnd vpwr scs8hd_decap_12
XFILLER_158_3 vgnd vpwr scs8hd_decap_12
XFILLER_181_110 vgnd vpwr scs8hd_decap_12
XFILLER_73_3 vgnd vpwr scs8hd_decap_12
XFILLER_86_105 vgnd vpwr scs8hd_decap_12
XFILLER_103_15 vgnd vpwr scs8hd_decap_12
XFILLER_103_59 vpwr vgnd scs8hd_fill_2
XFILLER_10_105 vgnd vpwr scs8hd_decap_12
XFILLER_163_110 vgnd vpwr scs8hd_decap_12
XFILLER_128_56 vgnd vpwr scs8hd_decap_12
XFILLER_12_56 vgnd vpwr scs8hd_decap_12
XFILLER_88_27 vgnd vpwr scs8hd_decap_4
XFILLER_144_44 vgnd vpwr scs8hd_decap_12
XFILLER_160_32 vgnd vpwr scs8hd_decap_12
XFILLER_37_86 vgnd vpwr scs8hd_decap_12
XFILLER_169_74 vgnd vpwr scs8hd_decap_12
XFILLER_53_74 vgnd vpwr scs8hd_decap_12
XFILLER_185_62 vgnd vpwr scs8hd_decap_12
XFILLER_185_51 vgnd vpwr scs8hd_decap_8
XFILLER_68_105 vgnd vpwr scs8hd_fill_1
XFILLER_78_93 vgnd vpwr scs8hd_decap_12
XFILLER_145_110 vgnd vpwr scs8hd_decap_12
XPHY_759 vgnd vpwr scs8hd_tapvpwrvgnd_1
XPHY_748 vgnd vpwr scs8hd_tapvpwrvgnd_1
XPHY_737 vgnd vpwr scs8hd_tapvpwrvgnd_1
XPHY_726 vgnd vpwr scs8hd_tapvpwrvgnd_1
XPHY_715 vgnd vpwr scs8hd_tapvpwrvgnd_1
XPHY_704 vgnd vpwr scs8hd_tapvpwrvgnd_1
XFILLER_130_68 vgnd vpwr scs8hd_decap_12
XFILLER_23_66 vgnd vpwr scs8hd_fill_1
XFILLER_23_77 vpwr vgnd scs8hd_fill_2
XFILLER_99_59 vpwr vgnd scs8hd_fill_2
XFILLER_99_15 vgnd vpwr scs8hd_decap_12
XFILLER_3_3 vgnd vpwr scs8hd_decap_12
XFILLER_171_86 vgnd vpwr scs8hd_decap_12
XFILLER_155_98 vgnd vpwr scs8hd_decap_12
XFILLER_0_15 vgnd vpwr scs8hd_decap_12
XFILLER_104_80 vgnd vpwr scs8hd_decap_12
XFILLER_36_3 vgnd vpwr scs8hd_decap_12
XFILLER_100_27 vgnd vpwr scs8hd_decap_4
XFILLER_18_44 vgnd vpwr scs8hd_decap_12
XFILLER_85_39 vgnd vpwr scs8hd_decap_12
XFILLER_34_32 vgnd vpwr scs8hd_decap_12
XPHY_501 vgnd vpwr scs8hd_tapvpwrvgnd_1
XPHY_512 vgnd vpwr scs8hd_tapvpwrvgnd_1
XPHY_523 vgnd vpwr scs8hd_tapvpwrvgnd_1
XPHY_534 vgnd vpwr scs8hd_tapvpwrvgnd_1
XFILLER_140_3 vgnd vpwr scs8hd_decap_12
XFILLER_109_110 vgnd vpwr scs8hd_decap_12
XPHY_589 vgnd vpwr scs8hd_tapvpwrvgnd_1
XPHY_578 vgnd vpwr scs8hd_tapvpwrvgnd_1
XPHY_567 vgnd vpwr scs8hd_tapvpwrvgnd_1
XPHY_545 vgnd vpwr scs8hd_tapvpwrvgnd_1
XPHY_556 vgnd vpwr scs8hd_tapvpwrvgnd_1
XFILLER_59_51 vgnd vpwr scs8hd_decap_8
XFILLER_59_62 vgnd vpwr scs8hd_decap_12
XFILLER_130_105 vgnd vpwr scs8hd_decap_12
XFILLER_111_59 vpwr vgnd scs8hd_fill_2
XFILLER_111_15 vgnd vpwr scs8hd_decap_12
XFILLER_136_56 vgnd vpwr scs8hd_decap_12
XFILLER_96_27 vgnd vpwr scs8hd_decap_4
XFILLER_20_56 vgnd vpwr scs8hd_decap_12
XFILLER_188_3 vgnd vpwr scs8hd_decap_12
XFILLER_152_44 vgnd vpwr scs8hd_decap_12
XFILLER_188_105 vgnd vpwr scs8hd_decap_12
XPHY_375 vgnd vpwr scs8hd_decap_3
XPHY_364 vgnd vpwr scs8hd_decap_3
XPHY_353 vgnd vpwr scs8hd_decap_3
XPHY_342 vgnd vpwr scs8hd_decap_3
XPHY_331 vgnd vpwr scs8hd_decap_3
XPHY_320 vgnd vpwr scs8hd_decap_3
XPHY_386 vgnd vpwr scs8hd_tapvpwrvgnd_1
XFILLER_45_86 vgnd vpwr scs8hd_decap_12
XFILLER_177_74 vgnd vpwr scs8hd_decap_12
XPHY_397 vgnd vpwr scs8hd_tapvpwrvgnd_1
XFILLER_61_74 vgnd vpwr scs8hd_decap_12
XFILLER_112_105 vgnd vpwr scs8hd_decap_12
XFILLER_86_93 vgnd vpwr scs8hd_decap_12
XFILLER_106_15 vgnd vpwr scs8hd_decap_12
XANTENNA__04__A address[3] vgnd vpwr scs8hd_diode_2
XFILLER_163_98 vgnd vpwr scs8hd_decap_12
XFILLER_103_3 vgnd vpwr scs8hd_decap_12
XFILLER_16_111 vgnd vpwr scs8hd_decap_12
XFILLER_112_80 vgnd vpwr scs8hd_decap_12
XPHY_194 vgnd vpwr scs8hd_decap_3
XPHY_183 vgnd vpwr scs8hd_decap_3
XPHY_150 vgnd vpwr scs8hd_decap_3
XPHY_161 vgnd vpwr scs8hd_decap_3
XPHY_172 vgnd vpwr scs8hd_decap_3
XFILLER_93_39 vgnd vpwr scs8hd_decap_12
XFILLER_26_44 vgnd vpwr scs8hd_decap_12
XFILLER_158_32 vgnd vpwr scs8hd_decap_12
XFILLER_26_88 vgnd vpwr scs8hd_decap_4
XFILLER_42_32 vgnd vpwr scs8hd_decap_12
XFILLER_3_15 vgnd vpwr scs8hd_decap_12
XFILLER_3_59 vpwr vgnd scs8hd_fill_2
XFILLER_67_51 vgnd vpwr scs8hd_decap_8
XFILLER_67_62 vgnd vpwr scs8hd_decap_12
XFILLER_66_3 vgnd vpwr scs8hd_decap_12
XFILLER_86_117 vgnd vpwr scs8hd_decap_8
XFILLER_103_27 vgnd vpwr scs8hd_decap_12
XFILLER_10_117 vgnd vpwr scs8hd_decap_8
XFILLER_128_68 vgnd vpwr scs8hd_decap_12
XFILLER_12_68 vgnd vpwr scs8hd_decap_12
XFILLER_144_56 vgnd vpwr scs8hd_decap_12
XFILLER_170_3 vgnd vpwr scs8hd_decap_12
XFILLER_160_44 vgnd vpwr scs8hd_decap_12
XFILLER_37_98 vgnd vpwr scs8hd_decap_12
XFILLER_169_86 vgnd vpwr scs8hd_decap_12
XFILLER_5_110 vgnd vpwr scs8hd_decap_12
XFILLER_53_86 vgnd vpwr scs8hd_decap_12
XFILLER_185_74 vgnd vpwr scs8hd_decap_12
XFILLER_94_93 vgnd vpwr scs8hd_decap_12
Xlogical_tile_io_mode_io__4.logical_tile_io_mode_physical__iopad_0.GPIO_0_.buffer
+ right_width_0_height_0__pin_8_ logical_tile_io_mode_io__4.logical_tile_io_mode_physical__iopad_0.GPIO_0_.buffer/TEB
+ gfpga_pad_GPIO_PAD[4] vgnd vpwr scs8hd_ebufn_1
XFILLER_114_15 vgnd vpwr scs8hd_decap_12
XFILLER_4_80 vgnd vpwr scs8hd_decap_12
XPHY_727 vgnd vpwr scs8hd_tapvpwrvgnd_1
XPHY_716 vgnd vpwr scs8hd_tapvpwrvgnd_1
XPHY_705 vgnd vpwr scs8hd_tapvpwrvgnd_1
XPHY_749 vgnd vpwr scs8hd_tapvpwrvgnd_1
XPHY_738 vgnd vpwr scs8hd_tapvpwrvgnd_1
XFILLER_99_27 vgnd vpwr scs8hd_decap_12
XANTENNA__12__A _12_/A vgnd vpwr scs8hd_diode_2
XFILLER_171_98 vgnd vpwr scs8hd_decap_12
XFILLER_0_27 vgnd vpwr scs8hd_decap_4
XFILLER_120_80 vgnd vpwr scs8hd_decap_12
XFILLER_29_3 vgnd vpwr scs8hd_decap_12
XFILLER_109_59 vpwr vgnd scs8hd_fill_2
XFILLER_109_15 vgnd vpwr scs8hd_decap_12
XFILLER_18_56 vgnd vpwr scs8hd_decap_12
XPHY_568 vgnd vpwr scs8hd_tapvpwrvgnd_1
XANTENNA__07__A _13_/C vgnd vpwr scs8hd_diode_2
XFILLER_34_44 vgnd vpwr scs8hd_decap_12
XPHY_502 vgnd vpwr scs8hd_tapvpwrvgnd_1
XPHY_513 vgnd vpwr scs8hd_tapvpwrvgnd_1
XPHY_524 vgnd vpwr scs8hd_tapvpwrvgnd_1
XPHY_535 vgnd vpwr scs8hd_tapvpwrvgnd_1
XPHY_546 vgnd vpwr scs8hd_tapvpwrvgnd_1
XPHY_557 vgnd vpwr scs8hd_tapvpwrvgnd_1
XFILLER_166_32 vgnd vpwr scs8hd_decap_12
XFILLER_133_3 vgnd vpwr scs8hd_decap_12
XPHY_579 vgnd vpwr scs8hd_tapvpwrvgnd_1
XFILLER_50_32 vgnd vpwr scs8hd_decap_12
XFILLER_59_74 vgnd vpwr scs8hd_decap_12
XFILLER_61_123 vpwr vgnd scs8hd_fill_2
XFILLER_75_51 vgnd vpwr scs8hd_decap_8
XFILLER_75_62 vgnd vpwr scs8hd_decap_12
XFILLER_130_117 vgnd vpwr scs8hd_decap_8
XFILLER_111_27 vgnd vpwr scs8hd_decap_12
XFILLER_136_68 vgnd vpwr scs8hd_decap_12
XFILLER_20_68 vgnd vpwr scs8hd_decap_12
XFILLER_152_56 vgnd vpwr scs8hd_decap_12
XFILLER_43_123 vpwr vgnd scs8hd_fill_2
XFILLER_188_117 vgnd vpwr scs8hd_decap_8
XPHY_376 vgnd vpwr scs8hd_decap_3
XPHY_365 vgnd vpwr scs8hd_decap_3
XPHY_354 vgnd vpwr scs8hd_decap_3
XPHY_343 vgnd vpwr scs8hd_decap_3
XPHY_332 vgnd vpwr scs8hd_decap_3
XPHY_321 vgnd vpwr scs8hd_decap_3
XPHY_310 vgnd vpwr scs8hd_decap_3
XPHY_398 vgnd vpwr scs8hd_tapvpwrvgnd_1
XPHY_387 vgnd vpwr scs8hd_tapvpwrvgnd_1
XFILLER_45_98 vgnd vpwr scs8hd_decap_6
XFILLER_61_86 vgnd vpwr scs8hd_decap_12
XFILLER_177_86 vgnd vpwr scs8hd_decap_12
XFILLER_6_15 vgnd vpwr scs8hd_decap_12
XFILLER_112_117 vgnd vpwr scs8hd_decap_8
XFILLER_96_3 vgnd vpwr scs8hd_decap_12
XFILLER_106_27 vgnd vpwr scs8hd_decap_4
XFILLER_122_15 vgnd vpwr scs8hd_decap_12
XFILLER_25_101 vgnd vpwr scs8hd_decap_3
XFILLER_25_123 vpwr vgnd scs8hd_fill_2
XANTENNA__20__A gfpga_pad_GPIO_PAD[1] vgnd vpwr scs8hd_diode_2
XFILLER_16_123 vpwr vgnd scs8hd_fill_2
XPHY_195 vgnd vpwr scs8hd_decap_3
XPHY_184 vgnd vpwr scs8hd_decap_3
XPHY_140 vgnd vpwr scs8hd_decap_3
XPHY_151 vgnd vpwr scs8hd_decap_3
XPHY_162 vgnd vpwr scs8hd_decap_3
XPHY_173 vgnd vpwr scs8hd_decap_3
XFILLER_11_3 vgnd vpwr scs8hd_decap_12
XFILLER_117_15 vgnd vpwr scs8hd_decap_12
XFILLER_117_59 vpwr vgnd scs8hd_fill_2
XFILLER_26_56 vgnd vpwr scs8hd_decap_12
XFILLER_158_44 vgnd vpwr scs8hd_decap_12
XANTENNA__15__A address[1] vgnd vpwr scs8hd_diode_2
XFILLER_42_44 vgnd vpwr scs8hd_decap_12
XFILLER_181_123 vpwr vgnd scs8hd_fill_2
XFILLER_174_32 vgnd vpwr scs8hd_decap_12
XFILLER_3_27 vgnd vpwr scs8hd_decap_12
XFILLER_67_74 vgnd vpwr scs8hd_decap_12
XFILLER_83_51 vgnd vpwr scs8hd_decap_8
XFILLER_83_62 vgnd vpwr scs8hd_decap_12
XFILLER_59_3 vgnd vpwr scs8hd_decap_12
XFILLER_103_39 vgnd vpwr scs8hd_decap_12
XFILLER_163_123 vpwr vgnd scs8hd_fill_2
XFILLER_144_68 vgnd vpwr scs8hd_decap_12
XFILLER_163_3 vgnd vpwr scs8hd_decap_12
XFILLER_160_56 vgnd vpwr scs8hd_decap_12
XFILLER_169_98 vgnd vpwr scs8hd_decap_8
XFILLER_53_98 vgnd vpwr scs8hd_decap_12
XFILLER_185_86 vgnd vpwr scs8hd_decap_12
XFILLER_118_80 vgnd vpwr scs8hd_decap_12
XFILLER_91_110 vgnd vpwr scs8hd_decap_12
XFILLER_145_123 vpwr vgnd scs8hd_fill_2
XFILLER_114_27 vgnd vpwr scs8hd_decap_4
Xlogical_tile_io_mode_io__3.logical_tile_io_mode_physical__iopad_0.GPIO_LATCH_mem.LATCH_0_.latch
+ data_in logical_tile_io_mode_io__3.logical_tile_io_mode_physical__iopad_0.GPIO_0_.buffer/TEB
+ _12_/Y vgnd vpwr scs8hd_lpflow_inputisolatch_1
XPHY_739 vgnd vpwr scs8hd_tapvpwrvgnd_1
XPHY_728 vgnd vpwr scs8hd_tapvpwrvgnd_1
XPHY_717 vgnd vpwr scs8hd_tapvpwrvgnd_1
XPHY_706 vgnd vpwr scs8hd_tapvpwrvgnd_1
XFILLER_130_15 vgnd vpwr scs8hd_decap_12
XFILLER_99_39 vgnd vpwr scs8hd_decap_12
XANTENNA__12__B _13_/B vgnd vpwr scs8hd_diode_2
XFILLER_151_115 vgnd vpwr scs8hd_decap_6
XFILLER_48_32 vgnd vpwr scs8hd_decap_12
XFILLER_104_93 vgnd vpwr scs8hd_decap_12
XFILLER_73_110 vgnd vpwr scs8hd_decap_12
XFILLER_9_59 vpwr vgnd scs8hd_fill_2
XFILLER_9_15 vgnd vpwr scs8hd_decap_12
XFILLER_127_123 vpwr vgnd scs8hd_fill_2
XFILLER_109_27 vgnd vpwr scs8hd_decap_12
XFILLER_125_59 vpwr vgnd scs8hd_fill_2
XFILLER_125_15 vgnd vpwr scs8hd_decap_12
XFILLER_18_68 vgnd vpwr scs8hd_decap_12
XFILLER_55_110 vgnd vpwr scs8hd_decap_12
XPHY_569 vgnd vpwr scs8hd_tapvpwrvgnd_1
XANTENNA__07__B address[2] vgnd vpwr scs8hd_diode_2
XFILLER_34_56 vgnd vpwr scs8hd_decap_12
XPHY_503 vgnd vpwr scs8hd_tapvpwrvgnd_1
XPHY_514 vgnd vpwr scs8hd_tapvpwrvgnd_1
XPHY_525 vgnd vpwr scs8hd_tapvpwrvgnd_1
XPHY_536 vgnd vpwr scs8hd_tapvpwrvgnd_1
XPHY_547 vgnd vpwr scs8hd_tapvpwrvgnd_1
XPHY_558 vgnd vpwr scs8hd_tapvpwrvgnd_1
XFILLER_166_44 vgnd vpwr scs8hd_decap_12
XFILLER_126_3 vgnd vpwr scs8hd_decap_12
XFILLER_109_123 vpwr vgnd scs8hd_fill_2
XANTENNA__23__A gfpga_pad_GPIO_PAD[4] vgnd vpwr scs8hd_diode_2
XFILLER_50_44 vgnd vpwr scs8hd_decap_12
XFILLER_182_32 vgnd vpwr scs8hd_decap_12
XFILLER_59_86 vgnd vpwr scs8hd_decap_12
XFILLER_91_51 vgnd vpwr scs8hd_decap_8
XFILLER_75_74 vgnd vpwr scs8hd_decap_12
XFILLER_91_62 vgnd vpwr scs8hd_decap_12
XFILLER_41_3 vgnd vpwr scs8hd_decap_12
XFILLER_37_110 vgnd vpwr scs8hd_decap_12
XFILLER_111_39 vgnd vpwr scs8hd_decap_12
XANTENNA__18__A gfpga_pad_GPIO_PAD[7] vgnd vpwr scs8hd_diode_2
XFILLER_152_68 vgnd vpwr scs8hd_decap_12
XPHY_300 vgnd vpwr scs8hd_decap_3
XFILLER_28_121 vgnd vpwr scs8hd_decap_4
XPHY_377 vgnd vpwr scs8hd_decap_3
XPHY_366 vgnd vpwr scs8hd_decap_3
XPHY_355 vgnd vpwr scs8hd_decap_3
XPHY_344 vgnd vpwr scs8hd_decap_3
XPHY_333 vgnd vpwr scs8hd_decap_3
XPHY_322 vgnd vpwr scs8hd_decap_3
XPHY_311 vgnd vpwr scs8hd_decap_3
XPHY_399 vgnd vpwr scs8hd_tapvpwrvgnd_1
XPHY_388 vgnd vpwr scs8hd_tapvpwrvgnd_1
XFILLER_61_98 vgnd vpwr scs8hd_decap_12
XFILLER_177_98 vgnd vpwr scs8hd_decap_12
XFILLER_10_80 vgnd vpwr scs8hd_decap_12
XFILLER_6_27 vgnd vpwr scs8hd_decap_4
XFILLER_126_80 vgnd vpwr scs8hd_decap_12
XFILLER_19_121 vgnd vpwr scs8hd_fill_1
XFILLER_89_3 vgnd vpwr scs8hd_decap_12
XFILLER_103_118 vgnd vpwr scs8hd_decap_4
XFILLER_122_27 vgnd vpwr scs8hd_decap_4
XFILLER_40_105 vgnd vpwr scs8hd_decap_12
XFILLER_56_32 vgnd vpwr scs8hd_decap_12
XFILLER_112_93 vgnd vpwr scs8hd_decap_12
XPHY_130 vgnd vpwr scs8hd_decap_3
XPHY_141 vgnd vpwr scs8hd_decap_3
XPHY_152 vgnd vpwr scs8hd_decap_3
XPHY_196 vgnd vpwr scs8hd_decap_3
XPHY_185 vgnd vpwr scs8hd_decap_3
XPHY_163 vgnd vpwr scs8hd_decap_3
XPHY_174 vgnd vpwr scs8hd_decap_3
XFILLER_98_105 vgnd vpwr scs8hd_decap_12
XFILLER_117_27 vgnd vpwr scs8hd_decap_12
XFILLER_133_59 vpwr vgnd scs8hd_fill_2
XFILLER_133_15 vgnd vpwr scs8hd_decap_12
XFILLER_26_68 vgnd vpwr scs8hd_decap_12
XFILLER_158_56 vgnd vpwr scs8hd_decap_12
XANTENNA__15__B _13_/B vgnd vpwr scs8hd_diode_2
XFILLER_42_56 vgnd vpwr scs8hd_decap_12
XFILLER_174_44 vgnd vpwr scs8hd_decap_12
XFILLER_3_39 vgnd vpwr scs8hd_decap_12
XFILLER_190_32 vgnd vpwr scs8hd_decap_12
XFILLER_67_86 vgnd vpwr scs8hd_decap_12
XFILLER_157_110 vgnd vpwr scs8hd_decap_12
XFILLER_83_74 vgnd vpwr scs8hd_decap_12
XFILLER_128_15 vgnd vpwr scs8hd_decap_12
XFILLER_12_15 vgnd vpwr scs8hd_decap_12
XFILLER_160_68 vgnd vpwr scs8hd_decap_12
XFILLER_156_3 vgnd vpwr scs8hd_decap_12
XFILLER_139_110 vgnd vpwr scs8hd_decap_12
XFILLER_185_98 vgnd vpwr scs8hd_decap_12
XFILLER_5_123 vpwr vgnd scs8hd_fill_2
XFILLER_134_80 vgnd vpwr scs8hd_decap_12
XFILLER_68_108 vgnd vpwr scs8hd_decap_12
XFILLER_71_3 vgnd vpwr scs8hd_decap_12
XFILLER_160_105 vgnd vpwr scs8hd_decap_12
XFILLER_4_93 vgnd vpwr scs8hd_decap_12
XPHY_729 vgnd vpwr scs8hd_tapvpwrvgnd_1
XPHY_718 vgnd vpwr scs8hd_tapvpwrvgnd_1
XPHY_707 vgnd vpwr scs8hd_tapvpwrvgnd_1
XFILLER_130_27 vgnd vpwr scs8hd_decap_4
XFILLER_23_69 vpwr vgnd scs8hd_fill_2
XANTENNA__12__C _13_/C vgnd vpwr scs8hd_diode_2
XFILLER_48_44 vgnd vpwr scs8hd_decap_12
XFILLER_64_32 vgnd vpwr scs8hd_decap_12
XFILLER_120_93 vgnd vpwr scs8hd_decap_12
XFILLER_9_27 vgnd vpwr scs8hd_decap_12
XFILLER_142_105 vgnd vpwr scs8hd_decap_12
XFILLER_89_62 vgnd vpwr scs8hd_decap_12
XFILLER_89_51 vgnd vpwr scs8hd_decap_8
XFILLER_109_39 vgnd vpwr scs8hd_decap_12
XFILLER_125_27 vgnd vpwr scs8hd_decap_12
XFILLER_141_59 vpwr vgnd scs8hd_fill_2
XFILLER_141_15 vgnd vpwr scs8hd_decap_12
XANTENNA__07__C _12_/A vgnd vpwr scs8hd_diode_2
XFILLER_34_68 vgnd vpwr scs8hd_decap_12
XPHY_504 vgnd vpwr scs8hd_tapvpwrvgnd_1
XPHY_515 vgnd vpwr scs8hd_tapvpwrvgnd_1
XPHY_526 vgnd vpwr scs8hd_tapvpwrvgnd_1
XPHY_537 vgnd vpwr scs8hd_tapvpwrvgnd_1
XPHY_548 vgnd vpwr scs8hd_tapvpwrvgnd_1
XPHY_559 vgnd vpwr scs8hd_tapvpwrvgnd_1
XFILLER_166_56 vgnd vpwr scs8hd_decap_12
XFILLER_124_105 vgnd vpwr scs8hd_decap_12
XFILLER_119_3 vgnd vpwr scs8hd_decap_12
XFILLER_1_3 vgnd vpwr scs8hd_decap_12
XFILLER_50_56 vgnd vpwr scs8hd_decap_12
XFILLER_182_44 vgnd vpwr scs8hd_decap_12
XFILLER_59_98 vgnd vpwr scs8hd_decap_12
XFILLER_91_74 vgnd vpwr scs8hd_decap_12
XFILLER_75_86 vgnd vpwr scs8hd_decap_12
XFILLER_34_3 vgnd vpwr scs8hd_decap_12
XFILLER_136_15 vgnd vpwr scs8hd_decap_12
XFILLER_106_105 vgnd vpwr scs8hd_decap_12
XFILLER_20_15 vgnd vpwr scs8hd_decap_12
XPHY_334 vgnd vpwr scs8hd_decap_3
XPHY_323 vgnd vpwr scs8hd_decap_3
XPHY_312 vgnd vpwr scs8hd_decap_3
XPHY_301 vgnd vpwr scs8hd_decap_3
XFILLER_101_51 vgnd vpwr scs8hd_decap_8
XPHY_378 vgnd vpwr scs8hd_decap_3
XPHY_367 vgnd vpwr scs8hd_decap_3
XPHY_356 vgnd vpwr scs8hd_decap_3
XPHY_345 vgnd vpwr scs8hd_decap_3
XFILLER_101_62 vgnd vpwr scs8hd_decap_12
XPHY_389 vgnd vpwr scs8hd_tapvpwrvgnd_1
XFILLER_142_80 vgnd vpwr scs8hd_decap_12
XFILLER_19_111 vpwr vgnd scs8hd_fill_2
XFILLER_15_15 vgnd vpwr scs8hd_decap_12
XFILLER_40_117 vgnd vpwr scs8hd_decap_8
XFILLER_15_59 vpwr vgnd scs8hd_fill_2
XFILLER_186_3 vgnd vpwr scs8hd_decap_12
XFILLER_56_44 vgnd vpwr scs8hd_decap_12
XFILLER_188_32 vgnd vpwr scs8hd_decap_12
XPHY_120 vgnd vpwr scs8hd_decap_3
XPHY_131 vgnd vpwr scs8hd_decap_3
XPHY_142 vgnd vpwr scs8hd_decap_3
XFILLER_72_32 vgnd vpwr scs8hd_decap_12
XPHY_153 vgnd vpwr scs8hd_decap_3
XPHY_164 vgnd vpwr scs8hd_decap_3
XPHY_175 vgnd vpwr scs8hd_decap_3
XPHY_197 vgnd vpwr scs8hd_decap_3
XPHY_186 vgnd vpwr scs8hd_decap_3
XFILLER_98_117 vgnd vpwr scs8hd_decap_8
XFILLER_97_62 vgnd vpwr scs8hd_decap_12
XFILLER_97_51 vgnd vpwr scs8hd_decap_8
XPHY_0 vgnd vpwr scs8hd_decap_3
XFILLER_22_106 vgnd vpwr scs8hd_decap_12
XFILLER_117_39 vgnd vpwr scs8hd_decap_12
XFILLER_133_27 vgnd vpwr scs8hd_decap_12
XANTENNA__15__C _13_/C vgnd vpwr scs8hd_diode_2
XFILLER_158_68 vgnd vpwr scs8hd_decap_12
XFILLER_42_68 vgnd vpwr scs8hd_decap_12
XFILLER_174_56 vgnd vpwr scs8hd_decap_12
XFILLER_101_3 vgnd vpwr scs8hd_decap_12
XFILLER_190_44 vgnd vpwr scs8hd_decap_12
XFILLER_67_98 vgnd vpwr scs8hd_decap_12
XFILLER_83_86 vgnd vpwr scs8hd_decap_12
XFILLER_16_91 vgnd vpwr scs8hd_fill_1
XFILLER_16_80 vgnd vpwr scs8hd_decap_3
XFILLER_128_27 vgnd vpwr scs8hd_decap_4
XFILLER_12_27 vgnd vpwr scs8hd_decap_4
XFILLER_144_15 vgnd vpwr scs8hd_decap_12
XFILLER_149_3 vgnd vpwr scs8hd_decap_12
XFILLER_118_93 vgnd vpwr scs8hd_decap_12
XFILLER_150_80 vgnd vpwr scs8hd_decap_12
XFILLER_91_123 vpwr vgnd scs8hd_fill_2
XFILLER_64_3 vgnd vpwr scs8hd_decap_12
XFILLER_160_117 vgnd vpwr scs8hd_decap_8
XPHY_719 vgnd vpwr scs8hd_tapvpwrvgnd_1
XPHY_708 vgnd vpwr scs8hd_tapvpwrvgnd_1
XFILLER_139_15 vgnd vpwr scs8hd_decap_12
XFILLER_23_15 vgnd vpwr scs8hd_decap_12
XFILLER_23_59 vpwr vgnd scs8hd_fill_2
XFILLER_139_59 vpwr vgnd scs8hd_fill_2
XANTENNA__12__D _13_/D vgnd vpwr scs8hd_diode_2
XFILLER_48_56 vgnd vpwr scs8hd_decap_12
XFILLER_64_44 vgnd vpwr scs8hd_decap_12
XFILLER_73_123 vpwr vgnd scs8hd_fill_2
XFILLER_127_114 vpwr vgnd scs8hd_fill_2
XFILLER_9_39 vgnd vpwr scs8hd_decap_12
XFILLER_80_32 vgnd vpwr scs8hd_decap_12
XFILLER_142_117 vgnd vpwr scs8hd_decap_8
XFILLER_89_74 vgnd vpwr scs8hd_decap_12
XFILLER_125_39 vgnd vpwr scs8hd_decap_12
XFILLER_18_15 vgnd vpwr scs8hd_decap_12
XFILLER_141_27 vgnd vpwr scs8hd_decap_12
XANTENNA__07__D enable vgnd vpwr scs8hd_diode_2
XFILLER_55_123 vpwr vgnd scs8hd_fill_2
XPHY_505 vgnd vpwr scs8hd_tapvpwrvgnd_1
XPHY_516 vgnd vpwr scs8hd_tapvpwrvgnd_1
XPHY_527 vgnd vpwr scs8hd_tapvpwrvgnd_1
XPHY_538 vgnd vpwr scs8hd_tapvpwrvgnd_1
XPHY_549 vgnd vpwr scs8hd_tapvpwrvgnd_1
XFILLER_166_68 vgnd vpwr scs8hd_decap_12
XFILLER_124_117 vgnd vpwr scs8hd_decap_8
XFILLER_50_68 vgnd vpwr scs8hd_decap_12
XFILLER_182_56 vgnd vpwr scs8hd_decap_12
XFILLER_75_98 vgnd vpwr scs8hd_decap_12
XFILLER_91_86 vgnd vpwr scs8hd_decap_12
XANTENNA_logical_tile_io_mode_io__7.logical_tile_io_mode_physical__iopad_0.GPIO_0_.buffer_TEB
+ logical_tile_io_mode_io__7.logical_tile_io_mode_physical__iopad_0.GPIO_0_.buffer/TEB
+ vgnd vpwr scs8hd_diode_2
XFILLER_27_3 vgnd vpwr scs8hd_decap_12
XFILLER_1_51 vgnd vpwr scs8hd_decap_8
XFILLER_1_62 vgnd vpwr scs8hd_decap_12
XFILLER_37_123 vpwr vgnd scs8hd_fill_2
XFILLER_136_27 vgnd vpwr scs8hd_decap_4
XFILLER_106_117 vgnd vpwr scs8hd_decap_8
XFILLER_20_27 vgnd vpwr scs8hd_decap_4
XFILLER_152_15 vgnd vpwr scs8hd_decap_12
XPHY_368 vgnd vpwr scs8hd_decap_3
XPHY_357 vgnd vpwr scs8hd_decap_3
XPHY_346 vgnd vpwr scs8hd_decap_3
XPHY_335 vgnd vpwr scs8hd_decap_3
XPHY_324 vgnd vpwr scs8hd_decap_3
XPHY_313 vgnd vpwr scs8hd_decap_3
XPHY_302 vgnd vpwr scs8hd_decap_3
XFILLER_101_74 vgnd vpwr scs8hd_decap_12
XPHY_379 vgnd vpwr scs8hd_decap_3
XFILLER_131_3 vgnd vpwr scs8hd_decap_12
XFILLER_126_93 vgnd vpwr scs8hd_decap_12
XFILLER_10_93 vgnd vpwr scs8hd_decap_12
XFILLER_19_123 vpwr vgnd scs8hd_fill_2
XFILLER_15_27 vgnd vpwr scs8hd_decap_12
X_09_ address[1] enable address[3] _13_/D _09_/X vgnd vpwr scs8hd_and4_4
XFILLER_147_59 vpwr vgnd scs8hd_fill_2
XFILLER_147_15 vgnd vpwr scs8hd_decap_12
XFILLER_31_15 vgnd vpwr scs8hd_decap_12
XFILLER_31_59 vpwr vgnd scs8hd_fill_2
XFILLER_179_3 vgnd vpwr scs8hd_decap_12
XFILLER_56_56 vgnd vpwr scs8hd_decap_12
XFILLER_188_44 vgnd vpwr scs8hd_decap_12
XPHY_198 vgnd vpwr scs8hd_decap_3
XPHY_187 vgnd vpwr scs8hd_decap_3
XPHY_110 vgnd vpwr scs8hd_decap_3
XPHY_121 vgnd vpwr scs8hd_decap_3
XPHY_132 vgnd vpwr scs8hd_decap_3
XPHY_143 vgnd vpwr scs8hd_decap_3
XFILLER_72_44 vgnd vpwr scs8hd_decap_12
XPHY_154 vgnd vpwr scs8hd_decap_3
XPHY_165 vgnd vpwr scs8hd_decap_3
XPHY_176 vgnd vpwr scs8hd_decap_3
XFILLER_97_74 vgnd vpwr scs8hd_decap_12
XPHY_1 vgnd vpwr scs8hd_decap_3
XFILLER_22_118 vgnd vpwr scs8hd_decap_6
XFILLER_175_123 vpwr vgnd scs8hd_fill_2
XFILLER_94_3 vgnd vpwr scs8hd_decap_12
XFILLER_133_39 vgnd vpwr scs8hd_decap_12
XFILLER_26_15 vgnd vpwr scs8hd_decap_12
XANTENNA__15__D address[2] vgnd vpwr scs8hd_diode_2
XFILLER_190_56 vgnd vpwr scs8hd_decap_12
XFILLER_174_68 vgnd vpwr scs8hd_decap_12
XFILLER_107_62 vgnd vpwr scs8hd_decap_12
XFILLER_107_51 vgnd vpwr scs8hd_decap_8
XFILLER_83_98 vgnd vpwr scs8hd_decap_12
XFILLER_157_123 vpwr vgnd scs8hd_fill_2
XFILLER_32_80 vgnd vpwr scs8hd_decap_12
XFILLER_148_80 vgnd vpwr scs8hd_decap_12
XFILLER_144_27 vgnd vpwr scs8hd_decap_4
XFILLER_85_110 vgnd vpwr scs8hd_decap_12
XFILLER_160_15 vgnd vpwr scs8hd_decap_12
XFILLER_139_123 vpwr vgnd scs8hd_fill_2
XFILLER_78_32 vgnd vpwr scs8hd_decap_12
XFILLER_134_93 vgnd vpwr scs8hd_decap_12
XFILLER_57_3 vgnd vpwr scs8hd_decap_12
XFILLER_67_110 vgnd vpwr scs8hd_decap_12
XPHY_709 vgnd vpwr scs8hd_tapvpwrvgnd_1
XFILLER_139_27 vgnd vpwr scs8hd_decap_12
XFILLER_23_27 vgnd vpwr scs8hd_decap_12
XFILLER_155_59 vpwr vgnd scs8hd_fill_2
XFILLER_155_15 vgnd vpwr scs8hd_decap_12
XFILLER_48_68 vgnd vpwr scs8hd_decap_12
XFILLER_161_3 vgnd vpwr scs8hd_decap_12
XFILLER_64_56 vgnd vpwr scs8hd_decap_12
XFILLER_80_44 vgnd vpwr scs8hd_decap_12
XFILLER_89_86 vgnd vpwr scs8hd_decap_12
XFILLER_49_110 vgnd vpwr scs8hd_decap_12