* NGSPICE file created from grid_clb.ext - technology: sky130A

* Black-box entry subcircuit for sky130_fd_sc_hd__fill_2 abstract view
.subckt sky130_fd_sc_hd__fill_2 VGND VNB VPB VPWR
.ends

* Black-box entry subcircuit for sky130_fd_sc_hd__decap_3 abstract view
.subckt sky130_fd_sc_hd__decap_3 VGND VNB VPB VPWR
.ends

* Black-box entry subcircuit for sky130_fd_sc_hd__mux2_1 abstract view
.subckt sky130_fd_sc_hd__mux2_1 A0 A1 S X VGND VNB VPB VPWR
.ends

* Black-box entry subcircuit for sky130_fd_sc_hd__dfxtp_1 abstract view
.subckt sky130_fd_sc_hd__dfxtp_1 D Q CLK VGND VNB VPB VPWR
.ends

* Black-box entry subcircuit for sky130_fd_sc_hd__buf_2 abstract view
.subckt sky130_fd_sc_hd__buf_2 A X VGND VNB VPB VPWR
.ends

* Black-box entry subcircuit for sky130_fd_sc_hd__decap_4 abstract view
.subckt sky130_fd_sc_hd__decap_4 VGND VNB VPB VPWR
.ends

* Black-box entry subcircuit for sky130_fd_sc_hd__fill_1 abstract view
.subckt sky130_fd_sc_hd__fill_1 VGND VNB VPB VPWR
.ends

* Black-box entry subcircuit for sky130_fd_sc_hd__conb_1 abstract view
.subckt sky130_fd_sc_hd__conb_1 HI LO VGND VNB VPB VPWR
.ends

* Black-box entry subcircuit for sky130_fd_sc_hd__clkbuf_1 abstract view
.subckt sky130_fd_sc_hd__clkbuf_1 A X VGND VNB VPB VPWR
.ends

* Black-box entry subcircuit for sky130_fd_sc_hd__diode_2 abstract view
.subckt sky130_fd_sc_hd__diode_2 DIODE VGND VNB VPB VPWR
.ends

* Black-box entry subcircuit for sky130_fd_sc_hd__decap_6 abstract view
.subckt sky130_fd_sc_hd__decap_6 VGND VNB VPB VPWR
.ends

* Black-box entry subcircuit for sky130_fd_sc_hd__tapvpwrvgnd_1 abstract view
.subckt sky130_fd_sc_hd__tapvpwrvgnd_1 VGND VPWR
.ends

* Black-box entry subcircuit for sky130_fd_sc_hd__decap_12 abstract view
.subckt sky130_fd_sc_hd__decap_12 VGND VNB VPB VPWR
.ends

* Black-box entry subcircuit for sky130_fd_sc_hd__sdfxtp_1 abstract view
.subckt sky130_fd_sc_hd__sdfxtp_1 D Q SCD SCE CLK VGND VNB VPB VPWR
.ends

* Black-box entry subcircuit for sky130_fd_sc_hd__decap_8 abstract view
.subckt sky130_fd_sc_hd__decap_8 VGND VNB VPB VPWR
.ends

* Black-box entry subcircuit for sky130_fd_sc_hd__clkbuf_16 abstract view
.subckt sky130_fd_sc_hd__clkbuf_16 A X VGND VNB VPB VPWR
.ends

* Black-box entry subcircuit for sky130_fd_sc_hd__or2_1 abstract view
.subckt sky130_fd_sc_hd__or2_1 A B X VGND VNB VPB VPWR
.ends

.subckt grid_clb Test_en bottom_width_0_height_0__pin_50_ bottom_width_0_height_0__pin_51_
+ ccff_head ccff_tail left_width_0_height_0__pin_52_ prog_clk right_width_0_height_0__pin_16_
+ right_width_0_height_0__pin_17_ right_width_0_height_0__pin_18_ right_width_0_height_0__pin_19_
+ right_width_0_height_0__pin_20_ right_width_0_height_0__pin_21_ right_width_0_height_0__pin_22_
+ right_width_0_height_0__pin_23_ right_width_0_height_0__pin_24_ right_width_0_height_0__pin_25_
+ right_width_0_height_0__pin_26_ right_width_0_height_0__pin_27_ right_width_0_height_0__pin_28_
+ right_width_0_height_0__pin_29_ right_width_0_height_0__pin_30_ right_width_0_height_0__pin_31_
+ right_width_0_height_0__pin_42_lower right_width_0_height_0__pin_42_upper right_width_0_height_0__pin_43_lower
+ right_width_0_height_0__pin_43_upper right_width_0_height_0__pin_44_lower right_width_0_height_0__pin_44_upper
+ right_width_0_height_0__pin_45_lower right_width_0_height_0__pin_45_upper right_width_0_height_0__pin_46_lower
+ right_width_0_height_0__pin_46_upper right_width_0_height_0__pin_47_lower right_width_0_height_0__pin_47_upper
+ right_width_0_height_0__pin_48_lower right_width_0_height_0__pin_48_upper right_width_0_height_0__pin_49_lower
+ right_width_0_height_0__pin_49_upper top_width_0_height_0__pin_0_ top_width_0_height_0__pin_10_
+ top_width_0_height_0__pin_11_ top_width_0_height_0__pin_12_ top_width_0_height_0__pin_13_
+ top_width_0_height_0__pin_14_ top_width_0_height_0__pin_15_ top_width_0_height_0__pin_1_
+ top_width_0_height_0__pin_2_ top_width_0_height_0__pin_32_ top_width_0_height_0__pin_33_
+ top_width_0_height_0__pin_34_lower top_width_0_height_0__pin_34_upper top_width_0_height_0__pin_35_lower
+ top_width_0_height_0__pin_35_upper top_width_0_height_0__pin_36_lower top_width_0_height_0__pin_36_upper
+ top_width_0_height_0__pin_37_lower top_width_0_height_0__pin_37_upper top_width_0_height_0__pin_38_lower
+ top_width_0_height_0__pin_38_upper top_width_0_height_0__pin_39_lower top_width_0_height_0__pin_39_upper
+ top_width_0_height_0__pin_3_ top_width_0_height_0__pin_40_lower top_width_0_height_0__pin_40_upper
+ top_width_0_height_0__pin_41_lower top_width_0_height_0__pin_41_upper top_width_0_height_0__pin_4_
+ top_width_0_height_0__pin_5_ top_width_0_height_0__pin_6_ top_width_0_height_0__pin_7_
+ top_width_0_height_0__pin_8_ top_width_0_height_0__pin_9_ VPWR VGND
XFILLER_13_177 VGND VGND VPWR VPWR sky130_fd_sc_hd__fill_2
XFILLER_9_104 VGND VGND VPWR VPWR sky130_fd_sc_hd__decap_3
Xltile_clb_mode__0.ltile_fle_3.ltile_phy_fabric_0.ltile_frac_logic_0.ltile_frac_lut4_0.frac_lut4_0_.frac_lut4_mux_0_.mux_l1_in_0_
+ ltile_clb_mode__0.ltile_fle_3.ltile_phy_fabric_0.ltile_frac_logic_0.ltile_frac_lut4_0.frac_lut4_0_.frac_lut4_mux_0_.mux_l1_in_0_/A0
+ ltile_clb_mode__0.ltile_fle_3.ltile_phy_fabric_0.ltile_frac_logic_0.ltile_frac_lut4_0.frac_lut4_0_.frac_lut4_mux_0_.mux_l1_in_0_/A1
+ ltile_clb_mode__0.ltile_fle_3.ltile_phy_fabric_0.ltile_frac_logic_0.ltile_frac_lut4_0.frac_lut4_0_.sky130_fd_sc_hd__buf_2_0_/X
+ ltile_clb_mode__0.ltile_fle_3.ltile_phy_fabric_0.ltile_frac_logic_0.ltile_frac_lut4_0.frac_lut4_0_.frac_lut4_mux_0_.mux_l1_in_0_/X
+ VGND VGND VPWR VPWR sky130_fd_sc_hd__mux2_1
Xltile_clb_mode__0.ltile_fle_0.ltile_phy_fabric_0.ltile_frac_logic_0.ltile_frac_lut4_0.frac_lut4_sky130_fd_sc_hd__dfxtp_1_mem.sky130_fd_sc_hd__dfxtp_1_13_
+ ltile_clb_mode__0.ltile_fle_0.ltile_phy_fabric_0.ltile_frac_logic_0.ltile_frac_lut4_0.frac_lut4_0_.frac_lut4_mux_0_.mux_l1_in_6_/A1
+ ltile_clb_mode__0.ltile_fle_0.ltile_phy_fabric_0.ltile_frac_logic_0.ltile_frac_lut4_0.frac_lut4_0_.frac_lut4_mux_0_.mux_l1_in_6_/A0
+ clkbuf_4_5_0_prog_clk/X VGND VGND VPWR VPWR sky130_fd_sc_hd__dfxtp_1
XFILLER_8_170 VGND VGND VPWR VPWR sky130_fd_sc_hd__decap_3
X_66_ right_width_0_height_0__pin_43_lower right_width_0_height_0__pin_43_upper VGND
+ VGND VPWR VPWR sky130_fd_sc_hd__buf_2
XFILLER_23_20 VGND VGND VPWR VPWR sky130_fd_sc_hd__decap_4
XFILLER_21_209 VGND VGND VPWR VPWR sky130_fd_sc_hd__fill_2
XFILLER_9_33 VGND VGND VPWR VPWR sky130_fd_sc_hd__fill_1
XFILLER_20_231 VGND VGND VPWR VPWR sky130_fd_sc_hd__fill_2
X_49_ _49_/HI _49_/LO VGND VGND VPWR VPWR sky130_fd_sc_hd__conb_1
Xclkbuf_3_4_0_prog_clk clkbuf_2_2_0_prog_clk/X clkbuf_4_9_0_prog_clk/A VGND VGND VPWR
+ VPWR sky130_fd_sc_hd__clkbuf_1
Xltile_clb_mode__0.ltile_fle_4.ltile_phy_fabric_0.mux_ff_0_D_0.mux_l2_in_0_ _38_/HI
+ ltile_clb_mode__0.ltile_fle_4.ltile_phy_fabric_0.mux_ff_0_D_0.mux_l1_in_0_/X ltile_clb_mode__0.ltile_fle_4.ltile_phy_fabric_0.mux_ff_0_D_0.mux_l2_in_0_/S
+ ltile_clb_mode__0.ltile_fle_4.ltile_phy_fabric_0.mux_ff_0_D_0.mux_l2_in_0_/X VGND
+ VGND VPWR VPWR sky130_fd_sc_hd__mux2_1
XFILLER_11_231 VGND VGND VPWR VPWR sky130_fd_sc_hd__fill_2
XFILLER_29_139 VGND VGND VPWR VPWR sky130_fd_sc_hd__fill_2
XFILLER_29_96 VGND VGND VPWR VPWR sky130_fd_sc_hd__fill_2
XFILLER_29_41 VGND VGND VPWR VPWR sky130_fd_sc_hd__fill_2
XFILLER_28_150 VGND VGND VPWR VPWR sky130_fd_sc_hd__decap_3
Xltile_clb_mode__0.ltile_fle_0.ltile_phy_fabric_0.ltile_frac_logic_0.ltile_frac_lut4_0.frac_lut4_sky130_fd_sc_hd__dfxtp_1_mem.sky130_fd_sc_hd__dfxtp_1_7_
+ ltile_clb_mode__0.ltile_fle_0.ltile_phy_fabric_0.ltile_frac_logic_0.ltile_frac_lut4_0.frac_lut4_0_.frac_lut4_mux_0_.mux_l1_in_3_/A1
+ ltile_clb_mode__0.ltile_fle_0.ltile_phy_fabric_0.ltile_frac_logic_0.ltile_frac_lut4_0.frac_lut4_0_.frac_lut4_mux_0_.mux_l1_in_3_/A0
+ clkbuf_4_4_0_prog_clk/X VGND VGND VPWR VPWR sky130_fd_sc_hd__dfxtp_1
Xltile_clb_mode__0.ltile_fle_7.ltile_phy_fabric_0.ltile_frac_logic_0.ltile_frac_lut4_0.frac_lut4_sky130_fd_sc_hd__dfxtp_1_mem.sky130_fd_sc_hd__dfxtp_1_1_
+ ltile_clb_mode__0.ltile_fle_7.ltile_phy_fabric_0.ltile_frac_logic_0.ltile_frac_lut4_0.frac_lut4_0_.frac_lut4_mux_0_.mux_l1_in_0_/A1
+ ltile_clb_mode__0.ltile_fle_7.ltile_phy_fabric_0.ltile_frac_logic_0.ltile_frac_lut4_0.frac_lut4_0_.frac_lut4_mux_0_.mux_l1_in_0_/A0
+ clkbuf_4_14_0_prog_clk/X VGND VGND VPWR VPWR sky130_fd_sc_hd__dfxtp_1
XFILLER_20_32 VGND VGND VPWR VPWR sky130_fd_sc_hd__decap_3
XFILLER_26_109 VGND VGND VPWR VPWR sky130_fd_sc_hd__fill_2
XANTENNA_5 _49_/HI VGND VGND VPWR VPWR sky130_fd_sc_hd__diode_2
XFILLER_13_3 VGND VGND VPWR VPWR sky130_fd_sc_hd__fill_2
XFILLER_6_56 VGND VGND VPWR VPWR sky130_fd_sc_hd__decap_6
XFILLER_25_164 VGND VGND VPWR VPWR sky130_fd_sc_hd__fill_2
XPHY_192 VGND VPWR sky130_fd_sc_hd__tapvpwrvgnd_1
XPHY_181 VGND VPWR sky130_fd_sc_hd__tapvpwrvgnd_1
XPHY_170 VGND VPWR sky130_fd_sc_hd__tapvpwrvgnd_1
Xltile_clb_mode__0.ltile_fle_6.ltile_phy_fabric_0.ltile_frac_logic_0.ltile_frac_lut4_0.frac_lut4_0_.frac_lut4_mux_0_.mux_l1_in_6_
+ ltile_clb_mode__0.ltile_fle_6.ltile_phy_fabric_0.ltile_frac_logic_0.ltile_frac_lut4_0.frac_lut4_0_.frac_lut4_mux_0_.mux_l1_in_6_/A0
+ ltile_clb_mode__0.ltile_fle_6.ltile_phy_fabric_0.ltile_frac_logic_0.ltile_frac_lut4_0.frac_lut4_0_.frac_lut4_mux_0_.mux_l1_in_6_/A1
+ ltile_clb_mode__0.ltile_fle_6.ltile_phy_fabric_0.ltile_frac_logic_0.ltile_frac_lut4_0.frac_lut4_0_.sky130_fd_sc_hd__buf_2_0_/X
+ ltile_clb_mode__0.ltile_fle_6.ltile_phy_fabric_0.ltile_frac_logic_0.ltile_frac_lut4_0.frac_lut4_0_.frac_lut4_mux_0_.mux_l1_in_6_/X
+ VGND VGND VPWR VPWR sky130_fd_sc_hd__mux2_1
XFILLER_22_145 VGND VGND VPWR VPWR sky130_fd_sc_hd__fill_2
XFILLER_9_116 VGND VGND VPWR VPWR sky130_fd_sc_hd__decap_3
XFILLER_9_138 VGND VGND VPWR VPWR sky130_fd_sc_hd__decap_3
Xltile_clb_mode__0.ltile_fle_0.ltile_phy_fabric_0.ltile_frac_logic_0.ltile_frac_lut4_0.frac_lut4_sky130_fd_sc_hd__dfxtp_1_mem.sky130_fd_sc_hd__dfxtp_1_12_
+ ltile_clb_mode__0.ltile_fle_0.ltile_phy_fabric_0.ltile_frac_logic_0.ltile_frac_lut4_0.frac_lut4_0_.frac_lut4_mux_0_.mux_l1_in_5_/A0
+ ltile_clb_mode__0.ltile_fle_0.ltile_phy_fabric_0.ltile_frac_logic_0.ltile_frac_lut4_0.frac_lut4_0_.frac_lut4_mux_0_.mux_l1_in_6_/A1
+ clkbuf_4_5_0_prog_clk/X VGND VGND VPWR VPWR sky130_fd_sc_hd__dfxtp_1
XFILLER_10_115 VGND VGND VPWR VPWR sky130_fd_sc_hd__fill_2
X_65_ right_width_0_height_0__pin_42_lower right_width_0_height_0__pin_42_upper VGND
+ VGND VPWR VPWR sky130_fd_sc_hd__buf_2
Xclkbuf_4_6_0_prog_clk clkbuf_4_7_0_prog_clk/A clkbuf_4_6_0_prog_clk/X VGND VGND VPWR
+ VPWR sky130_fd_sc_hd__clkbuf_1
XFILLER_5_152 VGND VGND VPWR VPWR sky130_fd_sc_hd__fill_2
Xltile_clb_mode__0.ltile_fle_3.ltile_phy_fabric_0.mem_fabric_out_0.sky130_fd_sc_hd__dfxtp_1_1_
+ ltile_clb_mode__0.ltile_fle_3.ltile_phy_fabric_0.mux_fabric_out_0.mux_l1_in_0_/S
+ ltile_clb_mode__0.ltile_fle_3.ltile_phy_fabric_0.mux_fabric_out_0.mux_l2_in_0_/S
+ clkbuf_4_13_0_prog_clk/X VGND VGND VPWR VPWR sky130_fd_sc_hd__dfxtp_1
XFILLER_23_87 VGND VGND VPWR VPWR sky130_fd_sc_hd__fill_2
Xltile_clb_mode__0.ltile_fle_6.ltile_phy_fabric_0.ltile_frac_logic_0.mux_frac_logic_out_0.mux_l2_in_0_
+ _43_/HI ltile_clb_mode__0.ltile_fle_6.ltile_phy_fabric_0.ltile_frac_logic_0.mux_frac_logic_out_0.mux_l1_in_0_/X
+ ltile_clb_mode__0.ltile_fle_6.ltile_phy_fabric_0.mem_fabric_out_0.sky130_fd_sc_hd__dfxtp_1_0_/D
+ ltile_clb_mode__0.ltile_fle_6.ltile_phy_fabric_0.mux_ff_0_D_0.mux_l1_in_0_/A1 VGND
+ VGND VPWR VPWR sky130_fd_sc_hd__mux2_1
XFILLER_2_188 VGND VGND VPWR VPWR sky130_fd_sc_hd__fill_2
X_48_ _48_/HI _48_/LO VGND VGND VPWR VPWR sky130_fd_sc_hd__conb_1
XFILLER_18_98 VGND VGND VPWR VPWR sky130_fd_sc_hd__decap_6
XFILLER_18_32 VGND VGND VPWR VPWR sky130_fd_sc_hd__fill_1
Xltile_clb_mode__0.ltile_fle_3.ltile_phy_fabric_0.mux_fabric_out_1.mux_l2_in_0_ _33_/HI
+ ltile_clb_mode__0.ltile_fle_3.ltile_phy_fabric_0.mux_fabric_out_1.mux_l1_in_0_/X
+ ltile_clb_mode__0.ltile_fle_3.ltile_phy_fabric_0.mux_fabric_out_1.mux_l2_in_0_/S
+ top_width_0_height_0__pin_40_lower VGND VGND VPWR VPWR sky130_fd_sc_hd__mux2_1
XFILLER_29_107 VGND VGND VPWR VPWR sky130_fd_sc_hd__decap_4
Xltile_clb_mode__0.ltile_fle_7.ltile_phy_fabric_0.ltile_frac_logic_0.ltile_frac_lut4_0.frac_lut4_sky130_fd_sc_hd__dfxtp_1_mem.sky130_fd_sc_hd__dfxtp_1_0_
+ ltile_clb_mode__0.ltile_fle_6.ltile_phy_fabric_0.mux_ff_0_D_0.mux_l2_in_0_/S ltile_clb_mode__0.ltile_fle_7.ltile_phy_fabric_0.ltile_frac_logic_0.ltile_frac_lut4_0.frac_lut4_0_.frac_lut4_mux_0_.mux_l1_in_0_/A1
+ clkbuf_4_14_0_prog_clk/X VGND VGND VPWR VPWR sky130_fd_sc_hd__dfxtp_1
XFILLER_20_66 VGND VGND VPWR VPWR sky130_fd_sc_hd__fill_1
XFILLER_20_44 VGND VGND VPWR VPWR sky130_fd_sc_hd__fill_2
Xltile_clb_mode__0.ltile_fle_0.ltile_phy_fabric_0.ltile_frac_logic_0.ltile_frac_lut4_0.frac_lut4_sky130_fd_sc_hd__dfxtp_1_mem.sky130_fd_sc_hd__dfxtp_1_6_
+ ltile_clb_mode__0.ltile_fle_0.ltile_phy_fabric_0.ltile_frac_logic_0.ltile_frac_lut4_0.frac_lut4_0_.frac_lut4_mux_0_.mux_l1_in_2_/A0
+ ltile_clb_mode__0.ltile_fle_0.ltile_phy_fabric_0.ltile_frac_logic_0.ltile_frac_lut4_0.frac_lut4_0_.frac_lut4_mux_0_.mux_l1_in_3_/A1
+ clkbuf_4_4_0_prog_clk/X VGND VGND VPWR VPWR sky130_fd_sc_hd__dfxtp_1
XANTENNA_6 _50_/HI VGND VGND VPWR VPWR sky130_fd_sc_hd__diode_2
Xltile_clb_mode__0.ltile_fle_4.ltile_phy_fabric_0.mux_ff_0_D_0.mux_l1_in_0_ ltile_clb_mode__0.ltile_fle_4.ltile_phy_fabric_0.mux_ff_0_D_0.mux_l1_in_0_/A0
+ ltile_clb_mode__0.ltile_fle_4.ltile_phy_fabric_0.mux_ff_0_D_0.mux_l1_in_0_/A1 ltile_clb_mode__0.ltile_fle_4.ltile_phy_fabric_0.mux_ff_0_D_0.mux_l1_in_0_/S
+ ltile_clb_mode__0.ltile_fle_4.ltile_phy_fabric_0.mux_ff_0_D_0.mux_l1_in_0_/X VGND
+ VGND VPWR VPWR sky130_fd_sc_hd__mux2_1
XFILLER_34_176 VGND VGND VPWR VPWR sky130_fd_sc_hd__fill_2
XPHY_193 VGND VPWR sky130_fd_sc_hd__tapvpwrvgnd_1
XFILLER_31_98 VGND VGND VPWR VPWR sky130_fd_sc_hd__fill_2
XPHY_182 VGND VPWR sky130_fd_sc_hd__tapvpwrvgnd_1
XPHY_171 VGND VPWR sky130_fd_sc_hd__tapvpwrvgnd_1
XPHY_160 VGND VPWR sky130_fd_sc_hd__tapvpwrvgnd_1
XFILLER_16_154 VGND VGND VPWR VPWR sky130_fd_sc_hd__fill_1
Xltile_clb_mode__0.ltile_fle_6.ltile_phy_fabric_0.ltile_frac_logic_0.ltile_frac_lut4_0.frac_lut4_0_.frac_lut4_mux_0_.mux_l1_in_5_
+ ltile_clb_mode__0.ltile_fle_6.ltile_phy_fabric_0.ltile_frac_logic_0.ltile_frac_lut4_0.frac_lut4_0_.frac_lut4_mux_0_.mux_l1_in_5_/A0
+ ltile_clb_mode__0.ltile_fle_6.ltile_phy_fabric_0.ltile_frac_logic_0.ltile_frac_lut4_0.frac_lut4_0_.frac_lut4_mux_0_.mux_l1_in_5_/A1
+ ltile_clb_mode__0.ltile_fle_6.ltile_phy_fabric_0.ltile_frac_logic_0.ltile_frac_lut4_0.frac_lut4_0_.sky130_fd_sc_hd__buf_2_0_/X
+ ltile_clb_mode__0.ltile_fle_6.ltile_phy_fabric_0.ltile_frac_logic_0.ltile_frac_lut4_0.frac_lut4_0_.frac_lut4_mux_0_.mux_l1_in_5_/X
+ VGND VGND VPWR VPWR sky130_fd_sc_hd__mux2_1
Xltile_clb_mode__0.ltile_fle_2.ltile_phy_fabric_0.ltile_frac_logic_0.mux_frac_logic_out_0.mux_l2_in_0_
+ _59_/HI ltile_clb_mode__0.ltile_fle_2.ltile_phy_fabric_0.ltile_frac_logic_0.mux_frac_logic_out_0.mux_l1_in_0_/X
+ ltile_clb_mode__0.ltile_fle_2.ltile_phy_fabric_0.mem_fabric_out_0.sky130_fd_sc_hd__dfxtp_1_0_/D
+ ltile_clb_mode__0.ltile_fle_2.ltile_phy_fabric_0.mux_ff_0_D_0.mux_l1_in_0_/A1 VGND
+ VGND VPWR VPWR sky130_fd_sc_hd__mux2_1
XFILLER_26_87 VGND VGND VPWR VPWR sky130_fd_sc_hd__fill_2
XFILLER_26_76 VGND VGND VPWR VPWR sky130_fd_sc_hd__fill_2
XFILLER_8_194 VGND VGND VPWR VPWR sky130_fd_sc_hd__fill_2
Xltile_clb_mode__0.ltile_fle_0.ltile_phy_fabric_0.ltile_frac_logic_0.ltile_frac_lut4_0.frac_lut4_sky130_fd_sc_hd__dfxtp_1_mem.sky130_fd_sc_hd__dfxtp_1_11_
+ ltile_clb_mode__0.ltile_fle_0.ltile_phy_fabric_0.ltile_frac_logic_0.ltile_frac_lut4_0.frac_lut4_0_.frac_lut4_mux_0_.mux_l1_in_5_/A1
+ ltile_clb_mode__0.ltile_fle_0.ltile_phy_fabric_0.ltile_frac_logic_0.ltile_frac_lut4_0.frac_lut4_0_.frac_lut4_mux_0_.mux_l1_in_5_/A0
+ clkbuf_4_4_0_prog_clk/X VGND VGND VPWR VPWR sky130_fd_sc_hd__dfxtp_1
X_64_ bottom_width_0_height_0__pin_50_ bottom_width_0_height_0__pin_51_ VGND VGND
+ VPWR VPWR sky130_fd_sc_hd__buf_2
XFILLER_5_120 VGND VGND VPWR VPWR sky130_fd_sc_hd__fill_2
XFILLER_4_90 VGND VGND VPWR VPWR sky130_fd_sc_hd__fill_2
Xltile_clb_mode__0.ltile_fle_3.ltile_phy_fabric_0.mem_fabric_out_0.sky130_fd_sc_hd__dfxtp_1_0_
+ ltile_clb_mode__0.ltile_fle_3.ltile_phy_fabric_0.mem_fabric_out_0.sky130_fd_sc_hd__dfxtp_1_0_/D
+ ltile_clb_mode__0.ltile_fle_3.ltile_phy_fabric_0.mux_fabric_out_0.mux_l1_in_0_/S
+ clkbuf_4_13_0_prog_clk/X VGND VGND VPWR VPWR sky130_fd_sc_hd__dfxtp_1
XFILLER_23_33 VGND VGND VPWR VPWR sky130_fd_sc_hd__fill_2
XFILLER_2_101 VGND VGND VPWR VPWR sky130_fd_sc_hd__decap_3
XFILLER_0_15 VGND VGND VPWR VPWR sky130_fd_sc_hd__decap_12
XFILLER_3_3 VGND VGND VPWR VPWR sky130_fd_sc_hd__decap_12
X_47_ _47_/HI _47_/LO VGND VGND VPWR VPWR sky130_fd_sc_hd__conb_1
XFILLER_18_66 VGND VGND VPWR VPWR sky130_fd_sc_hd__decap_4
XFILLER_18_55 VGND VGND VPWR VPWR sky130_fd_sc_hd__fill_2
XFILLER_7_204 VGND VGND VPWR VPWR sky130_fd_sc_hd__fill_2
Xltile_clb_mode__0.ltile_fle_6.ltile_phy_fabric_0.ltile_frac_logic_0.ltile_frac_lut4_0.frac_lut4_0_.frac_lut4_mux_0_.mux_l2_in_3_
+ ltile_clb_mode__0.ltile_fle_6.ltile_phy_fabric_0.ltile_frac_logic_0.ltile_frac_lut4_0.frac_lut4_0_.frac_lut4_mux_0_.mux_l1_in_7_/X
+ ltile_clb_mode__0.ltile_fle_6.ltile_phy_fabric_0.ltile_frac_logic_0.ltile_frac_lut4_0.frac_lut4_0_.frac_lut4_mux_0_.mux_l1_in_6_/X
+ ltile_clb_mode__0.ltile_fle_6.ltile_phy_fabric_0.ltile_frac_logic_0.ltile_frac_lut4_0.frac_lut4_0_.sky130_fd_sc_hd__buf_2_1_/X
+ ltile_clb_mode__0.ltile_fle_6.ltile_phy_fabric_0.ltile_frac_logic_0.ltile_frac_lut4_0.frac_lut4_0_.frac_lut4_mux_0_.mux_l2_in_3_/X
+ VGND VGND VPWR VPWR sky130_fd_sc_hd__mux2_1
XFILLER_20_89 VGND VGND VPWR VPWR sky130_fd_sc_hd__decap_3
XFILLER_29_21 VGND VGND VPWR VPWR sky130_fd_sc_hd__fill_2
XFILLER_28_163 VGND VGND VPWR VPWR sky130_fd_sc_hd__fill_2
Xltile_clb_mode__0.ltile_fle_0.ltile_phy_fabric_0.ltile_frac_logic_0.ltile_frac_lut4_0.frac_lut4_sky130_fd_sc_hd__dfxtp_1_mem.sky130_fd_sc_hd__dfxtp_1_5_
+ ltile_clb_mode__0.ltile_fle_0.ltile_phy_fabric_0.ltile_frac_logic_0.ltile_frac_lut4_0.frac_lut4_0_.frac_lut4_mux_0_.mux_l1_in_2_/A1
+ ltile_clb_mode__0.ltile_fle_0.ltile_phy_fabric_0.ltile_frac_logic_0.ltile_frac_lut4_0.frac_lut4_0_.frac_lut4_mux_0_.mux_l1_in_2_/A0
+ clkbuf_4_4_0_prog_clk/X VGND VGND VPWR VPWR sky130_fd_sc_hd__dfxtp_1
Xltile_clb_mode__0.ltile_fle_6.ltile_phy_fabric_0.ltile_frac_logic_0.mux_frac_logic_out_0.mux_l1_in_0_
+ ltile_clb_mode__0.ltile_fle_6.ltile_phy_fabric_0.ltile_frac_logic_0.mux_frac_logic_out_0.mux_l1_in_0_/A0
+ ltile_clb_mode__0.ltile_fle_6.ltile_phy_fabric_0.ltile_frac_logic_0.mux_frac_logic_out_0.mux_l1_in_0_/A1
+ ltile_clb_mode__0.ltile_fle_6.ltile_phy_fabric_0.ltile_frac_logic_0.mux_frac_logic_out_0.mux_l1_in_0_/S
+ ltile_clb_mode__0.ltile_fle_6.ltile_phy_fabric_0.ltile_frac_logic_0.mux_frac_logic_out_0.mux_l1_in_0_/X
+ VGND VGND VPWR VPWR sky130_fd_sc_hd__mux2_1
XANTENNA_7 _50_/HI VGND VGND VPWR VPWR sky130_fd_sc_hd__diode_2
XFILLER_34_144 VGND VGND VPWR VPWR sky130_fd_sc_hd__decap_3
Xltile_clb_mode__0.ltile_fle_3.ltile_phy_fabric_0.mux_fabric_out_1.mux_l1_in_0_ ltile_clb_mode__0.ltile_fle_3.ltile_phy_fabric_0.mux_fabric_out_1.mux_l1_in_0_/A0
+ ltile_clb_mode__0.ltile_fle_4.ltile_phy_fabric_0.mux_ff_0_D_0.mux_l1_in_0_/A0 ltile_clb_mode__0.ltile_fle_3.ltile_phy_fabric_0.mux_fabric_out_1.mux_l1_in_0_/S
+ ltile_clb_mode__0.ltile_fle_3.ltile_phy_fabric_0.mux_fabric_out_1.mux_l1_in_0_/X
+ VGND VGND VPWR VPWR sky130_fd_sc_hd__mux2_1
Xltile_clb_mode__0.ltile_fle_2.ltile_phy_fabric_0.ltile_frac_logic_0.ltile_frac_lut4_0.frac_lut4_0_.frac_lut4_mux_0_.mux_l1_in_7_
+ ltile_clb_mode__0.ltile_fle_2.ltile_phy_fabric_0.ltile_frac_logic_0.ltile_frac_lut4_0.frac_lut4_0_.frac_lut4_mux_0_.mux_l1_in_7_/A0
+ ltile_clb_mode__0.ltile_fle_2.ltile_phy_fabric_0.ltile_frac_logic_0.ltile_frac_lut4_0.frac_lut4_0_.frac_lut4_mux_0_.mux_l1_in_7_/A1
+ ltile_clb_mode__0.ltile_fle_2.ltile_phy_fabric_0.ltile_frac_logic_0.ltile_frac_lut4_0.frac_lut4_0_.sky130_fd_sc_hd__buf_2_0_/X
+ ltile_clb_mode__0.ltile_fle_2.ltile_phy_fabric_0.ltile_frac_logic_0.ltile_frac_lut4_0.frac_lut4_0_.frac_lut4_mux_0_.mux_l1_in_7_/X
+ VGND VGND VPWR VPWR sky130_fd_sc_hd__mux2_1
XFILLER_25_188 VGND VGND VPWR VPWR sky130_fd_sc_hd__fill_2
XFILLER_15_67 VGND VGND VPWR VPWR sky130_fd_sc_hd__fill_2
XPHY_194 VGND VPWR sky130_fd_sc_hd__tapvpwrvgnd_1
XFILLER_31_169 VGND VGND VPWR VPWR sky130_fd_sc_hd__decap_3
XFILLER_31_158 VGND VGND VPWR VPWR sky130_fd_sc_hd__fill_2
XFILLER_31_103 VGND VGND VPWR VPWR sky130_fd_sc_hd__fill_1
XPHY_183 VGND VPWR sky130_fd_sc_hd__tapvpwrvgnd_1
XPHY_172 VGND VPWR sky130_fd_sc_hd__tapvpwrvgnd_1
XPHY_161 VGND VPWR sky130_fd_sc_hd__tapvpwrvgnd_1
Xclkbuf_2_1_0_prog_clk clkbuf_2_1_0_prog_clk/A clkbuf_3_3_0_prog_clk/A VGND VGND VPWR
+ VPWR sky130_fd_sc_hd__clkbuf_1
XPHY_150 VGND VPWR sky130_fd_sc_hd__tapvpwrvgnd_1
Xltile_clb_mode__0.ltile_fle_6.ltile_phy_fabric_0.ltile_frac_logic_0.ltile_frac_lut4_0.frac_lut4_0_.frac_lut4_mux_0_.mux_l1_in_4_
+ ltile_clb_mode__0.ltile_fle_6.ltile_phy_fabric_0.ltile_frac_logic_0.ltile_frac_lut4_0.frac_lut4_0_.frac_lut4_mux_0_.mux_l1_in_4_/A0
+ ltile_clb_mode__0.ltile_fle_6.ltile_phy_fabric_0.ltile_frac_logic_0.ltile_frac_lut4_0.frac_lut4_0_.frac_lut4_mux_0_.mux_l1_in_4_/A1
+ ltile_clb_mode__0.ltile_fle_6.ltile_phy_fabric_0.ltile_frac_logic_0.ltile_frac_lut4_0.frac_lut4_0_.sky130_fd_sc_hd__buf_2_0_/X
+ ltile_clb_mode__0.ltile_fle_6.ltile_phy_fabric_0.ltile_frac_logic_0.ltile_frac_lut4_0.frac_lut4_0_.frac_lut4_mux_0_.mux_l1_in_4_/X
+ VGND VGND VPWR VPWR sky130_fd_sc_hd__mux2_1
Xltile_clb_mode__0.ltile_fle_1.ltile_phy_fabric_0.ltile_clb_fle_ff_0.sky130_fd_sc_hd__sdfxtp_1_0_
+ ltile_clb_mode__0.ltile_fle_1.ltile_phy_fabric_0.mux_ff_0_D_0.mux_l2_in_0_/X ltile_clb_mode__0.ltile_fle_1.ltile_phy_fabric_0.mux_fabric_out_0.mux_l1_in_0_/A1
+ ltile_clb_mode__0.ltile_fle_1.ltile_phy_fabric_0.mux_ff_0_D_0.mux_l1_in_0_/A0 Test_en
+ clkbuf_1_0_0_left_width_0_height_0__pin_52_/X VGND VGND VPWR VPWR sky130_fd_sc_hd__sdfxtp_1
Xltile_clb_mode__0.ltile_fle_1.ltile_phy_fabric_0.ltile_frac_logic_0.ltile_frac_lut4_0.frac_lut4_sky130_fd_sc_hd__dfxtp_1_mem.sky130_fd_sc_hd__dfxtp_1_9_
+ ltile_clb_mode__0.ltile_fle_1.ltile_phy_fabric_0.ltile_frac_logic_0.ltile_frac_lut4_0.frac_lut4_0_.frac_lut4_mux_0_.mux_l1_in_4_/A1
+ ltile_clb_mode__0.ltile_fle_1.ltile_phy_fabric_0.ltile_frac_logic_0.ltile_frac_lut4_0.frac_lut4_0_.frac_lut4_mux_0_.mux_l1_in_4_/A0
+ clkbuf_4_0_0_prog_clk/X VGND VGND VPWR VPWR sky130_fd_sc_hd__dfxtp_1
XFILLER_13_158 VGND VGND VPWR VPWR sky130_fd_sc_hd__decap_4
XFILLER_13_147 VGND VGND VPWR VPWR sky130_fd_sc_hd__fill_2
X_80_ top_width_0_height_0__pin_41_lower top_width_0_height_0__pin_41_upper VGND VGND
+ VPWR VPWR sky130_fd_sc_hd__buf_2
Xltile_clb_mode__0.ltile_fle_6.ltile_phy_fabric_0.ltile_frac_logic_0.ltile_frac_lut4_0.frac_lut4_0_.frac_lut4_mux_0_.mux_l4_in_0_
+ ltile_clb_mode__0.ltile_fle_6.ltile_phy_fabric_0.ltile_frac_logic_0.ltile_frac_lut4_0.frac_lut4_0_.frac_lut4_mux_0_.mux_l3_in_1_/X
+ ltile_clb_mode__0.ltile_fle_6.ltile_phy_fabric_0.ltile_frac_logic_0.ltile_frac_lut4_0.frac_lut4_0_.frac_lut4_mux_0_.mux_l3_in_0_/X
+ ltile_clb_mode__0.ltile_fle_6.ltile_phy_fabric_0.ltile_frac_logic_0.ltile_frac_lut4_0.frac_lut4_0_.sky130_fd_sc_hd__buf_2_3_/X
+ ltile_clb_mode__0.ltile_fle_6.ltile_phy_fabric_0.ltile_frac_logic_0.ltile_frac_lut4_0.frac_lut4_0_.frac_lut4_mux_0_.mux_l4_in_0_/X
+ VGND VGND VPWR VPWR sky130_fd_sc_hd__mux2_1
XFILLER_3_15 VGND VGND VPWR VPWR sky130_fd_sc_hd__decap_12
XFILLER_3_59 VGND VGND VPWR VPWR sky130_fd_sc_hd__fill_2
XFILLER_8_151 VGND VGND VPWR VPWR sky130_fd_sc_hd__fill_2
Xltile_clb_mode__0.ltile_fle_0.ltile_phy_fabric_0.ltile_frac_logic_0.ltile_frac_lut4_0.frac_lut4_sky130_fd_sc_hd__dfxtp_1_mem.sky130_fd_sc_hd__dfxtp_1_10_
+ ltile_clb_mode__0.ltile_fle_0.ltile_phy_fabric_0.ltile_frac_logic_0.ltile_frac_lut4_0.frac_lut4_0_.frac_lut4_mux_0_.mux_l1_in_4_/A0
+ ltile_clb_mode__0.ltile_fle_0.ltile_phy_fabric_0.ltile_frac_logic_0.ltile_frac_lut4_0.frac_lut4_0_.frac_lut4_mux_0_.mux_l1_in_5_/A1
+ clkbuf_4_4_0_prog_clk/X VGND VGND VPWR VPWR sky130_fd_sc_hd__dfxtp_1
XFILLER_12_79 VGND VGND VPWR VPWR sky130_fd_sc_hd__fill_2
XFILLER_12_68 VGND VGND VPWR VPWR sky130_fd_sc_hd__fill_2
XFILLER_12_57 VGND VGND VPWR VPWR sky130_fd_sc_hd__fill_2
XFILLER_12_46 VGND VGND VPWR VPWR sky130_fd_sc_hd__fill_2
XFILLER_12_13 VGND VGND VPWR VPWR sky130_fd_sc_hd__fill_2
XFILLER_32_231 VGND VGND VPWR VPWR sky130_fd_sc_hd__fill_2
Xltile_clb_mode__0.ltile_fle_2.ltile_phy_fabric_0.ltile_frac_logic_0.mux_frac_logic_out_0.mux_l1_in_0_
+ ltile_clb_mode__0.ltile_fle_2.ltile_phy_fabric_0.ltile_frac_logic_0.mux_frac_logic_out_0.mux_l1_in_0_/A0
+ ltile_clb_mode__0.ltile_fle_2.ltile_phy_fabric_0.ltile_frac_logic_0.mux_frac_logic_out_0.mux_l1_in_0_/A1
+ ltile_clb_mode__0.ltile_fle_2.ltile_phy_fabric_0.ltile_frac_logic_0.mux_frac_logic_out_0.mux_l1_in_0_/S
+ ltile_clb_mode__0.ltile_fle_2.ltile_phy_fabric_0.ltile_frac_logic_0.mux_frac_logic_out_0.mux_l1_in_0_/X
+ VGND VGND VPWR VPWR sky130_fd_sc_hd__mux2_1
X_63_ _63_/HI _63_/LO VGND VGND VPWR VPWR sky130_fd_sc_hd__conb_1
XFILLER_4_80 VGND VGND VPWR VPWR sky130_fd_sc_hd__decap_6
XFILLER_23_231 VGND VGND VPWR VPWR sky130_fd_sc_hd__fill_2
Xltile_clb_mode__0.ltile_fle_6.ltile_phy_fabric_0.ltile_frac_logic_0.ltile_frac_lut4_0.frac_lut4_0_.frac_lut4_mux_0_.mux_l3_in_1_
+ ltile_clb_mode__0.ltile_fle_6.ltile_phy_fabric_0.ltile_frac_logic_0.ltile_frac_lut4_0.frac_lut4_0_.frac_lut4_mux_0_.mux_l3_in_1_/A0
+ ltile_clb_mode__0.ltile_fle_6.ltile_phy_fabric_0.ltile_frac_logic_0.ltile_frac_lut4_0.frac_lut4_0_.frac_lut4_mux_0_.mux_l3_in_1_/A1
+ ltile_clb_mode__0.ltile_fle_6.ltile_phy_fabric_0.ltile_frac_logic_0.ltile_frac_lut4_0.frac_lut4_0_.sky130_fd_sc_hd__buf_2_2_/X
+ ltile_clb_mode__0.ltile_fle_6.ltile_phy_fabric_0.ltile_frac_logic_0.ltile_frac_lut4_0.frac_lut4_0_.frac_lut4_mux_0_.mux_l3_in_1_/X
+ VGND VGND VPWR VPWR sky130_fd_sc_hd__mux2_1
Xltile_clb_mode__0.ltile_fle_7.ltile_phy_fabric_0.mux_ff_0_D_0.mux_l2_in_0_ _50_/HI
+ ltile_clb_mode__0.ltile_fle_7.ltile_phy_fabric_0.mux_ff_0_D_0.mux_l1_in_0_/X ccff_tail
+ ltile_clb_mode__0.ltile_fle_7.ltile_phy_fabric_0.mux_ff_0_D_0.mux_l2_in_0_/X VGND
+ VGND VPWR VPWR sky130_fd_sc_hd__mux2_1
Xltile_clb_mode__0.ltile_fle_5.ltile_phy_fabric_0.mem_fabric_out_1.sky130_fd_sc_hd__dfxtp_1_1_
+ ltile_clb_mode__0.ltile_fle_5.ltile_phy_fabric_0.mux_fabric_out_1.mux_l1_in_0_/S
+ ltile_clb_mode__0.ltile_fle_5.ltile_phy_fabric_0.mux_fabric_out_1.mux_l2_in_0_/S
+ clkbuf_4_11_0_prog_clk/X VGND VGND VPWR VPWR sky130_fd_sc_hd__dfxtp_1
XFILLER_0_27 VGND VGND VPWR VPWR sky130_fd_sc_hd__decap_4
XFILLER_29_3 VGND VGND VPWR VPWR sky130_fd_sc_hd__fill_2
XFILLER_14_231 VGND VGND VPWR VPWR sky130_fd_sc_hd__fill_2
X_46_ _46_/HI _46_/LO VGND VGND VPWR VPWR sky130_fd_sc_hd__conb_1
XFILLER_20_212 VGND VGND VPWR VPWR sky130_fd_sc_hd__fill_2
Xltile_clb_mode__0.ltile_fle_6.ltile_phy_fabric_0.ltile_frac_logic_0.ltile_frac_lut4_0.frac_lut4_0_.frac_lut4_mux_0_.mux_l2_in_2_
+ ltile_clb_mode__0.ltile_fle_6.ltile_phy_fabric_0.ltile_frac_logic_0.ltile_frac_lut4_0.frac_lut4_0_.frac_lut4_mux_0_.mux_l1_in_5_/X
+ ltile_clb_mode__0.ltile_fle_6.ltile_phy_fabric_0.ltile_frac_logic_0.ltile_frac_lut4_0.frac_lut4_0_.frac_lut4_mux_0_.mux_l1_in_4_/X
+ ltile_clb_mode__0.ltile_fle_6.ltile_phy_fabric_0.ltile_frac_logic_0.ltile_frac_lut4_0.frac_lut4_0_.sky130_fd_sc_hd__buf_2_1_/X
+ ltile_clb_mode__0.ltile_fle_6.ltile_phy_fabric_0.ltile_frac_logic_0.ltile_frac_lut4_0.frac_lut4_0_.frac_lut4_mux_0_.mux_l2_in_2_/X
+ VGND VGND VPWR VPWR sky130_fd_sc_hd__mux2_1
Xclkbuf_3_3_0_prog_clk clkbuf_3_3_0_prog_clk/A clkbuf_4_7_0_prog_clk/A VGND VGND VPWR
+ VPWR sky130_fd_sc_hd__clkbuf_1
Xltile_clb_mode__0.ltile_fle_0.ltile_phy_fabric_0.ltile_frac_logic_0.ltile_frac_lut4_0.frac_lut4_sky130_fd_sc_hd__dfxtp_1_mem.sky130_fd_sc_hd__dfxtp_1_4_
+ ltile_clb_mode__0.ltile_fle_0.ltile_phy_fabric_0.ltile_frac_logic_0.ltile_frac_lut4_0.frac_lut4_0_.frac_lut4_mux_0_.mux_l1_in_1_/A0
+ ltile_clb_mode__0.ltile_fle_0.ltile_phy_fabric_0.ltile_frac_logic_0.ltile_frac_lut4_0.frac_lut4_0_.frac_lut4_mux_0_.mux_l1_in_2_/A1
+ clkbuf_4_4_0_prog_clk/X VGND VGND VPWR VPWR sky130_fd_sc_hd__dfxtp_1
XANTENNA_8 _54_/HI VGND VGND VPWR VPWR sky130_fd_sc_hd__diode_2
XFILLER_6_15 VGND VGND VPWR VPWR sky130_fd_sc_hd__decap_12
XFILLER_10_90 VGND VGND VPWR VPWR sky130_fd_sc_hd__fill_2
Xltile_clb_mode__0.ltile_fle_2.ltile_phy_fabric_0.ltile_frac_logic_0.ltile_frac_lut4_0.frac_lut4_0_.frac_lut4_mux_0_.mux_l1_in_6_
+ ltile_clb_mode__0.ltile_fle_2.ltile_phy_fabric_0.ltile_frac_logic_0.ltile_frac_lut4_0.frac_lut4_0_.frac_lut4_mux_0_.mux_l1_in_6_/A0
+ ltile_clb_mode__0.ltile_fle_2.ltile_phy_fabric_0.ltile_frac_logic_0.ltile_frac_lut4_0.frac_lut4_0_.frac_lut4_mux_0_.mux_l1_in_6_/A1
+ ltile_clb_mode__0.ltile_fle_2.ltile_phy_fabric_0.ltile_frac_logic_0.ltile_frac_lut4_0.frac_lut4_0_.sky130_fd_sc_hd__buf_2_0_/X
+ ltile_clb_mode__0.ltile_fle_2.ltile_phy_fabric_0.ltile_frac_logic_0.ltile_frac_lut4_0.frac_lut4_0_.frac_lut4_mux_0_.mux_l1_in_6_/X
+ VGND VGND VPWR VPWR sky130_fd_sc_hd__mux2_1
XFILLER_25_123 VGND VGND VPWR VPWR sky130_fd_sc_hd__fill_1
XPHY_195 VGND VPWR sky130_fd_sc_hd__tapvpwrvgnd_1
XPHY_184 VGND VPWR sky130_fd_sc_hd__tapvpwrvgnd_1
XPHY_173 VGND VPWR sky130_fd_sc_hd__tapvpwrvgnd_1
XPHY_162 VGND VPWR sky130_fd_sc_hd__tapvpwrvgnd_1
XPHY_151 VGND VPWR sky130_fd_sc_hd__tapvpwrvgnd_1
XPHY_140 VGND VPWR sky130_fd_sc_hd__tapvpwrvgnd_1
Xltile_clb_mode__0.ltile_fle_6.ltile_phy_fabric_0.ltile_frac_logic_0.ltile_frac_lut4_0.frac_lut4_0_.frac_lut4_mux_0_.mux_l1_in_3_
+ ltile_clb_mode__0.ltile_fle_6.ltile_phy_fabric_0.ltile_frac_logic_0.ltile_frac_lut4_0.frac_lut4_0_.frac_lut4_mux_0_.mux_l1_in_3_/A0
+ ltile_clb_mode__0.ltile_fle_6.ltile_phy_fabric_0.ltile_frac_logic_0.ltile_frac_lut4_0.frac_lut4_0_.frac_lut4_mux_0_.mux_l1_in_3_/A1
+ ltile_clb_mode__0.ltile_fle_6.ltile_phy_fabric_0.ltile_frac_logic_0.ltile_frac_lut4_0.frac_lut4_0_.sky130_fd_sc_hd__buf_2_0_/X
+ ltile_clb_mode__0.ltile_fle_6.ltile_phy_fabric_0.ltile_frac_logic_0.ltile_frac_lut4_0.frac_lut4_0_.frac_lut4_mux_0_.mux_l1_in_3_/X
+ VGND VGND VPWR VPWR sky130_fd_sc_hd__mux2_1