* NGSPICE file created from grid_io_bottom.ext - technology: EFS8A

* Black-box entry subcircuit for scs8hd_decap_12 abstract view
.subckt scs8hd_decap_12 vgnd vpwr
.ends

* Black-box entry subcircuit for scs8hd_fill_2 abstract view
.subckt scs8hd_fill_2 vpwr vgnd
.ends

* Black-box entry subcircuit for scs8hd_decap_8 abstract view
.subckt scs8hd_decap_8 vgnd vpwr
.ends

* Black-box entry subcircuit for scs8hd_decap_3 abstract view
.subckt scs8hd_decap_3 vgnd vpwr
.ends

* Black-box entry subcircuit for scs8hd_tapvpwrvgnd_1 abstract view
.subckt scs8hd_tapvpwrvgnd_1 vgnd vpwr
.ends

* Black-box entry subcircuit for scs8hd_fill_1 abstract view
.subckt scs8hd_fill_1 vgnd vpwr
.ends

* Black-box entry subcircuit for scs8hd_diode_2 abstract view
.subckt scs8hd_diode_2 DIODE vgnd vpwr
.ends

* Black-box entry subcircuit for scs8hd_decap_6 abstract view
.subckt scs8hd_decap_6 vgnd vpwr
.ends

* Black-box entry subcircuit for scs8hd_decap_4 abstract view
.subckt scs8hd_decap_4 vgnd vpwr
.ends

* Black-box entry subcircuit for scs8hd_lpflow_inputisolatch_1 abstract view
.subckt scs8hd_lpflow_inputisolatch_1 D Q SLEEPB vgnd vpwr
.ends

* Black-box entry subcircuit for scs8hd_and4_4 abstract view
.subckt scs8hd_and4_4 A B C D X vgnd vpwr
.ends

* Black-box entry subcircuit for scs8hd_inv_8 abstract view
.subckt scs8hd_inv_8 A Y vgnd vpwr
.ends

* Black-box entry subcircuit for scs8hd_nor4_4 abstract view
.subckt scs8hd_nor4_4 A B C D Y vgnd vpwr
.ends

.subckt grid_io_bottom address[0] address[1] address[2] address[3] data_in enable
+ gfpga_pad_GPIO_PAD[0] gfpga_pad_GPIO_PAD[1] gfpga_pad_GPIO_PAD[2] gfpga_pad_GPIO_PAD[3]
+ gfpga_pad_GPIO_PAD[4] gfpga_pad_GPIO_PAD[5] gfpga_pad_GPIO_PAD[6] gfpga_pad_GPIO_PAD[7]
+ top_width_0_height_0__pin_0_ top_width_0_height_0__pin_10_ top_width_0_height_0__pin_11_
+ top_width_0_height_0__pin_12_ top_width_0_height_0__pin_13_ top_width_0_height_0__pin_14_
+ top_width_0_height_0__pin_15_ top_width_0_height_0__pin_1_ top_width_0_height_0__pin_2_
+ top_width_0_height_0__pin_3_ top_width_0_height_0__pin_4_ top_width_0_height_0__pin_5_
+ top_width_0_height_0__pin_6_ top_width_0_height_0__pin_7_ top_width_0_height_0__pin_8_
+ top_width_0_height_0__pin_9_ vpwr vgnd
XFILLER_22_166 vgnd vpwr scs8hd_decap_12
XFILLER_9_159 vgnd vpwr scs8hd_decap_12
XFILLER_3_67 vpwr vgnd scs8hd_fill_2
XFILLER_27_269 vgnd vpwr scs8hd_decap_8
XFILLER_37_62 vgnd vpwr scs8hd_decap_12
XFILLER_37_51 vgnd vpwr scs8hd_decap_8
XFILLER_12_32 vgnd vpwr scs8hd_decap_12
XFILLER_24_239 vgnd vpwr scs8hd_decap_12
XFILLER_5_184 vgnd vpwr scs8hd_decap_12
XFILLER_23_86 vgnd vpwr scs8hd_decap_12
XFILLER_0_57 vgnd vpwr scs8hd_decap_3
XFILLER_2_110 vpwr vgnd scs8hd_fill_2
XFILLER_2_154 vgnd vpwr scs8hd_decap_12
XFILLER_38_117 vgnd vpwr scs8hd_decap_12
XFILLER_11_220 vgnd vpwr scs8hd_decap_12
XFILLER_7_257 vgnd vpwr scs8hd_decap_12
XFILLER_29_74 vgnd vpwr scs8hd_decap_12
XFILLER_20_32 vgnd vpwr scs8hd_decap_12
XFILLER_4_227 vgnd vpwr scs8hd_decap_12
XFILLER_13_3 vgnd vpwr scs8hd_decap_12
XFILLER_6_56 vgnd vpwr scs8hd_decap_12
XFILLER_40_178 vgnd vpwr scs8hd_decap_12
XFILLER_15_98 vgnd vpwr scs8hd_decap_12
XFILLER_1_208 vgnd vpwr scs8hd_decap_12
XFILLER_31_123 vgnd vpwr scs8hd_decap_12
XFILLER_31_86 vgnd vpwr scs8hd_decap_12
XPHY_192 vgnd vpwr scs8hd_tapvpwrvgnd_1
XPHY_181 vgnd vpwr scs8hd_tapvpwrvgnd_1
XPHY_170 vgnd vpwr scs8hd_tapvpwrvgnd_1
XFILLER_0_230 vgnd vpwr scs8hd_decap_12
XFILLER_39_245 vgnd vpwr scs8hd_decap_12
XFILLER_22_178 vgnd vpwr scs8hd_decap_12
XFILLER_42_63 vgnd vpwr scs8hd_decap_12
XFILLER_13_123 vgnd vpwr scs8hd_decap_12
XFILLER_36_215 vgnd vpwr scs8hd_decap_12
XFILLER_42_218 vgnd vpwr scs8hd_decap_12
XFILLER_37_74 vgnd vpwr scs8hd_decap_12
XFILLER_18_215 vgnd vpwr scs8hd_decap_12
XFILLER_12_44 vgnd vpwr scs8hd_decap_12
XFILLER_5_196 vgnd vpwr scs8hd_decap_12
XFILLER_32_251 vgnd vpwr scs8hd_decap_12
XFILLER_23_98 vgnd vpwr scs8hd_decap_12
XFILLER_14_251 vgnd vpwr scs8hd_decap_12
XFILLER_2_133 vgnd vpwr scs8hd_decap_12
XFILLER_2_166 vgnd vpwr scs8hd_decap_12
XFILLER_20_276 vgnd vpwr scs8hd_fill_1
XFILLER_18_32 vgnd vpwr scs8hd_decap_12
XFILLER_11_232 vgnd vpwr scs8hd_decap_12
XANTENNA_logical_tile_io_mode_io__4.logical_tile_io_mode_physical__iopad_0.GPIO_LATCH_mem.LATCH_0_.latch_SLEEPB
+ _09_/X vgnd vpwr scs8hd_diode_2
XFILLER_7_269 vgnd vpwr scs8hd_decap_8
XFILLER_38_129 vgnd vpwr scs8hd_decap_12
XFILLER_37_184 vgnd vpwr scs8hd_decap_12
XFILLER_29_86 vgnd vpwr scs8hd_decap_12
XFILLER_20_44 vgnd vpwr scs8hd_decap_12
XFILLER_4_239 vgnd vpwr scs8hd_decap_12
XFILLER_19_184 vgnd vpwr scs8hd_decap_12
XFILLER_6_68 vgnd vpwr scs8hd_decap_12
XFILLER_34_154 vgnd vpwr scs8hd_decap_12
XFILLER_25_110 vgnd vpwr scs8hd_decap_12
XFILLER_31_135 vgnd vpwr scs8hd_decap_12
XFILLER_31_98 vgnd vpwr scs8hd_decap_12
XPHY_193 vgnd vpwr scs8hd_tapvpwrvgnd_1
XPHY_182 vgnd vpwr scs8hd_tapvpwrvgnd_1
XPHY_171 vgnd vpwr scs8hd_tapvpwrvgnd_1
XFILLER_16_154 vgnd vpwr scs8hd_decap_12
XPHY_160 vgnd vpwr scs8hd_tapvpwrvgnd_1
XFILLER_0_242 vgnd vpwr scs8hd_decap_6
XFILLER_39_257 vgnd vpwr scs8hd_decap_12
XFILLER_30_190 vgnd vpwr scs8hd_decap_12
XFILLER_42_75 vgnd vpwr scs8hd_decap_12
XFILLER_26_32 vgnd vpwr scs8hd_decap_12
XFILLER_13_135 vgnd vpwr scs8hd_decap_12
XFILLER_36_227 vgnd vpwr scs8hd_decap_12
XFILLER_12_190 vgnd vpwr scs8hd_decap_12
XFILLER_12_56 vgnd vpwr scs8hd_decap_12
XFILLER_10_105 vgnd vpwr scs8hd_decap_12
XFILLER_37_86 vgnd vpwr scs8hd_decap_12
XFILLER_33_208 vgnd vpwr scs8hd_decap_12
XFILLER_18_227 vgnd vpwr scs8hd_decap_12
XFILLER_32_263 vgnd vpwr scs8hd_decap_12
XFILLER_15_208 vgnd vpwr scs8hd_decap_12
XFILLER_4_90 vpwr vgnd scs8hd_fill_2
XFILLER_14_263 vgnd vpwr scs8hd_decap_12
XFILLER_0_15 vgnd vpwr scs8hd_decap_12
XFILLER_2_145 vgnd vpwr scs8hd_decap_8
XFILLER_2_178 vgnd vpwr scs8hd_decap_12
XFILLER_3_3 vgnd vpwr scs8hd_decap_12
XFILLER_36_3 vgnd vpwr scs8hd_decap_12
XFILLER_34_32 vgnd vpwr scs8hd_decap_12
XFILLER_18_44 vgnd vpwr scs8hd_decap_12
XFILLER_37_196 vgnd vpwr scs8hd_decap_12
XFILLER_20_56 vgnd vpwr scs8hd_decap_12
XFILLER_1_91 vpwr vgnd scs8hd_fill_2
XFILLER_29_98 vgnd vpwr scs8hd_decap_12
XFILLER_28_141 vgnd vpwr scs8hd_decap_12
XFILLER_34_166 vgnd vpwr scs8hd_decap_12
XFILLER_19_196 vgnd vpwr scs8hd_decap_12
XFILLER_16_166 vgnd vpwr scs8hd_decap_12
XANTENNA__04__A address[2] vgnd vpwr scs8hd_diode_2
XFILLER_39_269 vgnd vpwr scs8hd_decap_8
XFILLER_31_147 vgnd vpwr scs8hd_decap_12
XPHY_194 vgnd vpwr scs8hd_tapvpwrvgnd_1
XPHY_183 vgnd vpwr scs8hd_tapvpwrvgnd_1
XPHY_172 vgnd vpwr scs8hd_tapvpwrvgnd_1
XPHY_161 vgnd vpwr scs8hd_tapvpwrvgnd_1
XPHY_150 vgnd vpwr scs8hd_tapvpwrvgnd_1
XFILLER_42_87 vgnd vpwr scs8hd_decap_6
XFILLER_42_32 vgnd vpwr scs8hd_decap_12
XFILLER_26_44 vgnd vpwr scs8hd_decap_12
XFILLER_13_147 vgnd vpwr scs8hd_decap_12
XFILLER_36_239 vgnd vpwr scs8hd_decap_12
XFILLER_3_15 vgnd vpwr scs8hd_decap_12
XFILLER_12_68 vgnd vpwr scs8hd_decap_12
XFILLER_10_117 vgnd vpwr scs8hd_decap_12
XFILLER_41_220 vgnd vpwr scs8hd_decap_12
XFILLER_37_98 vgnd vpwr scs8hd_decap_12
XFILLER_18_239 vgnd vpwr scs8hd_decap_12
XFILLER_5_121 vgnd vpwr scs8hd_fill_1
XFILLER_23_220 vgnd vpwr scs8hd_decap_12
XFILLER_0_49 vpwr vgnd scs8hd_fill_2
XFILLER_0_27 vgnd vpwr scs8hd_decap_4
XANTENNA__12__A _07_/C vgnd vpwr scs8hd_diode_2
XFILLER_29_3 vgnd vpwr scs8hd_decap_12
XFILLER_34_44 vgnd vpwr scs8hd_decap_12
XFILLER_18_56 vgnd vpwr scs8hd_decap_12
XANTENNA__07__A address[3] vgnd vpwr scs8hd_diode_2
XFILLER_11_245 vgnd vpwr scs8hd_decap_12
XFILLER_20_68 vgnd vpwr scs8hd_decap_12
XFILLER_6_15 vgnd vpwr scs8hd_decap_12
XFILLER_34_178 vgnd vpwr scs8hd_decap_12
XFILLER_25_123 vgnd vpwr scs8hd_decap_12
XFILLER_0_211 vgnd vpwr scs8hd_decap_6
XFILLER_31_159 vgnd vpwr scs8hd_decap_12
XPHY_195 vgnd vpwr scs8hd_tapvpwrvgnd_1
XPHY_184 vgnd vpwr scs8hd_tapvpwrvgnd_1
XPHY_173 vgnd vpwr scs8hd_tapvpwrvgnd_1
XFILLER_16_178 vgnd vpwr scs8hd_decap_12
XPHY_162 vgnd vpwr scs8hd_tapvpwrvgnd_1
XPHY_151 vgnd vpwr scs8hd_tapvpwrvgnd_1
XPHY_140 vgnd vpwr scs8hd_tapvpwrvgnd_1
XFILLER_11_3 vgnd vpwr scs8hd_decap_12
XFILLER_26_56 vgnd vpwr scs8hd_decap_12
XFILLER_42_44 vgnd vpwr scs8hd_decap_12
XFILLER_13_159 vgnd vpwr scs8hd_decap_12
XFILLER_3_27 vgnd vpwr scs8hd_decap_12
XFILLER_10_129 vgnd vpwr scs8hd_decap_12
XFILLER_8_141 vgnd vpwr scs8hd_decap_12
XFILLER_41_232 vgnd vpwr scs8hd_decap_12
XFILLER_26_251 vgnd vpwr scs8hd_decap_12
XFILLER_32_276 vgnd vpwr scs8hd_fill_1
XFILLER_23_232 vgnd vpwr scs8hd_decap_12
XANTENNA__12__B _05_/Y vgnd vpwr scs8hd_diode_2
XFILLER_2_114 vgnd vpwr scs8hd_decap_4
Xlogical_tile_io_mode_io__3.logical_tile_io_mode_physical__iopad_0.GPIO_LATCH_mem.LATCH_0_.latch
+ data_in logical_tile_io_mode_io__3.logical_tile_io_mode_physical__iopad_0.GPIO_LATCH_mem.LATCH_0_.latch/Q
+ _10_/Y vgnd vpwr scs8hd_lpflow_inputisolatch_1
XFILLER_14_276 vgnd vpwr scs8hd_fill_1
XFILLER_9_15 vgnd vpwr scs8hd_decap_12
XFILLER_9_59 vpwr vgnd scs8hd_fill_2
XFILLER_20_202 vgnd vpwr scs8hd_decap_12
XFILLER_18_68 vgnd vpwr scs8hd_decap_12
XFILLER_34_56 vgnd vpwr scs8hd_decap_12
XFILLER_11_257 vgnd vpwr scs8hd_decap_12
XANTENNA__07__B address[2] vgnd vpwr scs8hd_diode_2
XFILLER_41_3 vgnd vpwr scs8hd_decap_12
XFILLER_37_110 vgnd vpwr scs8hd_decap_12
XFILLER_28_154 vgnd vpwr scs8hd_decap_12
XFILLER_19_110 vgnd vpwr scs8hd_decap_12
XFILLER_10_80 vgnd vpwr scs8hd_decap_12
XFILLER_3_220 vgnd vpwr scs8hd_decap_12
XFILLER_6_27 vgnd vpwr scs8hd_decap_4
XFILLER_40_105 vgnd vpwr scs8hd_decap_12
XFILLER_25_135 vgnd vpwr scs8hd_decap_12
XFILLER_24_190 vgnd vpwr scs8hd_decap_12
XPHY_196 vgnd vpwr scs8hd_tapvpwrvgnd_1
XPHY_185 vgnd vpwr scs8hd_tapvpwrvgnd_1
XPHY_174 vgnd vpwr scs8hd_tapvpwrvgnd_1
XPHY_163 vgnd vpwr scs8hd_tapvpwrvgnd_1
XPHY_152 vgnd vpwr scs8hd_tapvpwrvgnd_1
XPHY_141 vgnd vpwr scs8hd_tapvpwrvgnd_1
XPHY_130 vgnd vpwr scs8hd_tapvpwrvgnd_1
XFILLER_22_105 vgnd vpwr scs8hd_decap_12
XFILLER_42_56 vgnd vpwr scs8hd_decap_6
XFILLER_26_68 vgnd vpwr scs8hd_decap_12
XFILLER_21_171 vgnd vpwr scs8hd_decap_12
XFILLER_3_39 vgnd vpwr scs8hd_decap_12
XFILLER_27_208 vgnd vpwr scs8hd_decap_12
XFILLER_26_263 vgnd vpwr scs8hd_decap_12
XFILLER_12_15 vgnd vpwr scs8hd_decap_12
XFILLER_5_101 vpwr vgnd scs8hd_fill_2
XFILLER_5_123 vgnd vpwr scs8hd_decap_12
XANTENNA__12__C address[3] vgnd vpwr scs8hd_diode_2
XFILLER_4_82 vgnd vpwr scs8hd_decap_8
XFILLER_4_93 vgnd vpwr scs8hd_decap_3
XFILLER_9_27 vgnd vpwr scs8hd_decap_12
XFILLER_34_68 vgnd vpwr scs8hd_decap_12
XFILLER_11_269 vgnd vpwr scs8hd_decap_8
XFILLER_1_3 vgnd vpwr scs8hd_decap_12
XANTENNA__07__C _07_/C vgnd vpwr scs8hd_diode_2
XFILLER_34_3 vgnd vpwr scs8hd_decap_12
XFILLER_1_83 vpwr vgnd scs8hd_fill_2
XFILLER_6_251 vgnd vpwr scs8hd_decap_12
XFILLER_28_166 vgnd vpwr scs8hd_decap_12
XFILLER_20_15 vgnd vpwr scs8hd_decap_12
XFILLER_42_180 vgnd vpwr scs8hd_decap_6
XFILLER_3_232 vgnd vpwr scs8hd_decap_12
XFILLER_40_117 vgnd vpwr scs8hd_decap_12
XFILLER_25_147 vgnd vpwr scs8hd_decap_12
XFILLER_15_59 vpwr vgnd scs8hd_fill_2
XFILLER_15_15 vgnd vpwr scs8hd_decap_12
XPHY_197 vgnd vpwr scs8hd_tapvpwrvgnd_1
XPHY_186 vgnd vpwr scs8hd_tapvpwrvgnd_1
XPHY_175 vgnd vpwr scs8hd_tapvpwrvgnd_1
XPHY_164 vgnd vpwr scs8hd_tapvpwrvgnd_1
XPHY_153 vgnd vpwr scs8hd_tapvpwrvgnd_1
XPHY_142 vgnd vpwr scs8hd_tapvpwrvgnd_1
XPHY_131 vgnd vpwr scs8hd_tapvpwrvgnd_1
XPHY_120 vgnd vpwr scs8hd_tapvpwrvgnd_1
XFILLER_22_117 vgnd vpwr scs8hd_decap_12
XPHY_0 vgnd vpwr scs8hd_decap_3
XFILLER_16_80 vgnd vpwr scs8hd_decap_12
XFILLER_8_154 vgnd vpwr scs8hd_decap_12
XFILLER_35_220 vgnd vpwr scs8hd_decap_12
XFILLER_12_27 vgnd vpwr scs8hd_decap_4
XFILLER_41_245 vgnd vpwr scs8hd_decap_12
XFILLER_17_220 vgnd vpwr scs8hd_decap_12
XFILLER_5_135 vgnd vpwr scs8hd_decap_12
XFILLER_23_245 vgnd vpwr scs8hd_decap_12
XFILLER_23_59 vpwr vgnd scs8hd_fill_2
XFILLER_23_15 vgnd vpwr scs8hd_decap_12
XFILLER_4_61 vgnd vpwr scs8hd_decap_8
XFILLER_4_190 vgnd vpwr scs8hd_decap_12
XANTENNA__12__D address[2] vgnd vpwr scs8hd_diode_2
XFILLER_9_39 vgnd vpwr scs8hd_decap_12
XFILLER_20_215 vgnd vpwr scs8hd_decap_12
XFILLER_1_182 vgnd vpwr scs8hd_fill_1
XFILLER_18_15 vgnd vpwr scs8hd_decap_12
XANTENNA__07__D enable vgnd vpwr scs8hd_diode_2
XFILLER_7_208 vgnd vpwr scs8hd_decap_12
XFILLER_27_3 vgnd vpwr scs8hd_decap_12
XFILLER_24_80 vgnd vpwr scs8hd_decap_12
XFILLER_6_263 vgnd vpwr scs8hd_decap_12
XFILLER_37_123 vgnd vpwr scs8hd_decap_12
XFILLER_20_27 vgnd vpwr scs8hd_decap_4
XFILLER_1_95 vgnd vpwr scs8hd_decap_4
XFILLER_28_178 vgnd vpwr scs8hd_decap_12
XFILLER_19_123 vgnd vpwr scs8hd_decap_12
XFILLER_10_93 vgnd vpwr scs8hd_decap_12
XFILLER_40_129 vgnd vpwr scs8hd_decap_12
XFILLER_25_159 vgnd vpwr scs8hd_decap_12
XFILLER_15_27 vgnd vpwr scs8hd_decap_12
X_09_ _07_/C enable address[3] _04_/Y _09_/X vgnd vpwr scs8hd_and4_4
XFILLER_31_59 vpwr vgnd scs8hd_fill_2
XFILLER_31_15 vgnd vpwr scs8hd_decap_12
XPHY_198 vgnd vpwr scs8hd_tapvpwrvgnd_1
XPHY_187 vgnd vpwr scs8hd_tapvpwrvgnd_1
XPHY_176 vgnd vpwr scs8hd_tapvpwrvgnd_1
XPHY_165 vgnd vpwr scs8hd_tapvpwrvgnd_1
XPHY_154 vgnd vpwr scs8hd_tapvpwrvgnd_1
XPHY_143 vgnd vpwr scs8hd_tapvpwrvgnd_1
XPHY_132 vgnd vpwr scs8hd_tapvpwrvgnd_1
XPHY_110 vgnd vpwr scs8hd_tapvpwrvgnd_1
XPHY_121 vgnd vpwr scs8hd_tapvpwrvgnd_1
XFILLER_22_129 vgnd vpwr scs8hd_decap_12
XPHY_1 vgnd vpwr scs8hd_decap_3
XFILLER_38_251 vgnd vpwr scs8hd_decap_12
XFILLER_26_15 vgnd vpwr scs8hd_decap_12
XFILLER_21_184 vgnd vpwr scs8hd_decap_12
XFILLER_32_80 vgnd vpwr scs8hd_decap_12
XFILLER_8_166 vgnd vpwr scs8hd_decap_12
XFILLER_35_232 vgnd vpwr scs8hd_decap_12
XFILLER_41_257 vgnd vpwr scs8hd_decap_12
XFILLER_26_276 vgnd vpwr scs8hd_fill_1
XFILLER_5_147 vgnd vpwr scs8hd_decap_12
XFILLER_32_202 vgnd vpwr scs8hd_decap_12
XFILLER_17_232 vgnd vpwr scs8hd_decap_12
XFILLER_23_257 vgnd vpwr scs8hd_decap_12
XFILLER_23_27 vgnd vpwr scs8hd_decap_12
XFILLER_14_202 vgnd vpwr scs8hd_decap_12
XFILLER_20_227 vgnd vpwr scs8hd_decap_12
XFILLER_34_15 vgnd vpwr scs8hd_decap_12
XFILLER_18_27 vgnd vpwr scs8hd_decap_4
XFILLER_40_80 vgnd vpwr scs8hd_decap_12
XFILLER_37_135 vgnd vpwr scs8hd_decap_12
XFILLER_29_15 vgnd vpwr scs8hd_decap_12
XFILLER_36_190 vgnd vpwr scs8hd_decap_12
XFILLER_29_59 vpwr vgnd scs8hd_fill_2
XFILLER_3_245 vgnd vpwr scs8hd_decap_12
XFILLER_34_105 vgnd vpwr scs8hd_decap_12
XFILLER_19_135 vgnd vpwr scs8hd_decap_12
X_08_ address[1] enable address[3] _04_/Y _08_/X vgnd vpwr scs8hd_and4_4
XFILLER_33_171 vgnd vpwr scs8hd_decap_12
XFILLER_31_27 vgnd vpwr scs8hd_decap_12
XFILLER_18_190 vgnd vpwr scs8hd_decap_12
XFILLER_16_105 vgnd vpwr scs8hd_decap_12
XFILLER_15_39 vgnd vpwr scs8hd_decap_12
XPHY_100 vgnd vpwr scs8hd_tapvpwrvgnd_1
XFILLER_39_208 vgnd vpwr scs8hd_decap_12
XPHY_199 vgnd vpwr scs8hd_tapvpwrvgnd_1
XPHY_188 vgnd vpwr scs8hd_tapvpwrvgnd_1
XPHY_177 vgnd vpwr scs8hd_tapvpwrvgnd_1
XPHY_166 vgnd vpwr scs8hd_tapvpwrvgnd_1
XFILLER_15_171 vgnd vpwr scs8hd_decap_12
XPHY_155 vgnd vpwr scs8hd_tapvpwrvgnd_1
XPHY_144 vgnd vpwr scs8hd_tapvpwrvgnd_1
XPHY_133 vgnd vpwr scs8hd_tapvpwrvgnd_1
XPHY_2 vgnd vpwr scs8hd_decap_3
XPHY_111 vgnd vpwr scs8hd_tapvpwrvgnd_1
XPHY_122 vgnd vpwr scs8hd_tapvpwrvgnd_1
XFILLER_42_15 vgnd vpwr scs8hd_decap_12
XFILLER_38_263 vgnd vpwr scs8hd_decap_12
XFILLER_30_141 vgnd vpwr scs8hd_decap_12
XFILLER_26_27 vgnd vpwr scs8hd_decap_4
XFILLER_21_196 vgnd vpwr scs8hd_decap_12
XFILLER_7_51 vgnd vpwr scs8hd_decap_8
XFILLER_7_62 vgnd vpwr scs8hd_decap_12
XFILLER_16_93 vgnd vpwr scs8hd_decap_12
XFILLER_12_141 vgnd vpwr scs8hd_decap_12
XFILLER_8_178 vgnd vpwr scs8hd_decap_12
XFILLER_41_269 vgnd vpwr scs8hd_decap_8
XFILLER_37_59 vpwr vgnd scs8hd_fill_2
XFILLER_37_15 vgnd vpwr scs8hd_decap_12
XFILLER_5_159 vgnd vpwr scs8hd_decap_12
XFILLER_23_269 vgnd vpwr scs8hd_decap_8
XFILLER_23_39 vgnd vpwr scs8hd_decap_12
XFILLER_2_129 vpwr vgnd scs8hd_fill_2
XFILLER_38_80 vgnd vpwr scs8hd_decap_12
XFILLER_1_184 vgnd vpwr scs8hd_decap_12
XFILLER_34_27 vgnd vpwr scs8hd_decap_4
XFILLER_20_239 vgnd vpwr scs8hd_decap_12
XFILLER_24_93 vgnd vpwr scs8hd_decap_12
XFILLER_37_147 vgnd vpwr scs8hd_decap_12
XFILLER_1_53 vpwr vgnd scs8hd_fill_2
XFILLER_6_276 vgnd vpwr scs8hd_fill_1
XFILLER_29_27 vgnd vpwr scs8hd_decap_12
XFILLER_3_257 vgnd vpwr scs8hd_decap_12
XFILLER_34_117 vgnd vpwr scs8hd_decap_12
XFILLER_32_3 vgnd vpwr scs8hd_decap_12
XFILLER_19_147 vgnd vpwr scs8hd_decap_12
XFILLER_31_39 vgnd vpwr scs8hd_decap_12
XFILLER_0_249 vgnd vpwr scs8hd_decap_12
X_07_ address[3] address[2] _07_/C enable _07_/X vgnd vpwr scs8hd_and4_4
XPHY_189 vgnd vpwr scs8hd_tapvpwrvgnd_1
XPHY_178 vgnd vpwr scs8hd_tapvpwrvgnd_1
XPHY_167 vgnd vpwr scs8hd_tapvpwrvgnd_1
XFILLER_16_117 vgnd vpwr scs8hd_decap_12
XPHY_156 vgnd vpwr scs8hd_tapvpwrvgnd_1
XPHY_145 vgnd vpwr scs8hd_tapvpwrvgnd_1
XPHY_134 vgnd vpwr scs8hd_tapvpwrvgnd_1
XPHY_101 vgnd vpwr scs8hd_tapvpwrvgnd_1
XPHY_112 vgnd vpwr scs8hd_tapvpwrvgnd_1
XPHY_123 vgnd vpwr scs8hd_tapvpwrvgnd_1
XPHY_3 vgnd vpwr scs8hd_decap_3
XFILLER_7_74 vgnd vpwr scs8hd_decap_12
XFILLER_42_27 vgnd vpwr scs8hd_decap_4
XFILLER_29_220 vgnd vpwr scs8hd_decap_12
XFILLER_35_245 vgnd vpwr scs8hd_decap_12
XFILLER_32_93 vgnd vpwr scs8hd_decap_12
XFILLER_37_27 vgnd vpwr scs8hd_decap_12
XFILLER_5_105 vgnd vpwr scs8hd_decap_12
XFILLER_32_215 vgnd vpwr scs8hd_decap_12
XFILLER_17_245 vgnd vpwr scs8hd_decap_12
XFILLER_14_215 vgnd vpwr scs8hd_decap_12
XFILLER_13_62 vgnd vpwr scs8hd_decap_12
XFILLER_13_51 vgnd vpwr scs8hd_decap_8
XFILLER_1_196 vgnd vpwr scs8hd_decap_12
XFILLER_40_93 vgnd vpwr scs8hd_decap_12
XFILLER_37_159 vgnd vpwr scs8hd_decap_12
XFILLER_10_251 vgnd vpwr scs8hd_decap_12
XFILLER_1_87 vpwr vgnd scs8hd_fill_2
XFILLER_29_39 vgnd vpwr scs8hd_decap_12
XANTENNA_logical_tile_io_mode_io__3.logical_tile_io_mode_physical__iopad_0.GPIO_LATCH_mem.LATCH_0_.latch_SLEEPB
+ _10_/Y vgnd vpwr scs8hd_diode_2
XFILLER_34_129 vgnd vpwr scs8hd_decap_12
XFILLER_19_159 vgnd vpwr scs8hd_decap_12
XFILLER_3_269 vgnd vpwr scs8hd_decap_8
XFILLER_33_184 vgnd vpwr scs8hd_decap_12
XFILLER_25_3 vgnd vpwr scs8hd_decap_12
X_06_ address[3] address[2] address[1] enable _06_/X vgnd vpwr scs8hd_and4_4
XFILLER_21_62 vgnd vpwr scs8hd_decap_12
XFILLER_21_51 vgnd vpwr scs8hd_decap_8
XPHY_179 vgnd vpwr scs8hd_tapvpwrvgnd_1
XPHY_168 vgnd vpwr scs8hd_tapvpwrvgnd_1
XFILLER_16_129 vgnd vpwr scs8hd_decap_12
XPHY_157 vgnd vpwr scs8hd_tapvpwrvgnd_1
XPHY_146 vgnd vpwr scs8hd_tapvpwrvgnd_1
XPHY_135 vgnd vpwr scs8hd_tapvpwrvgnd_1
XPHY_102 vgnd vpwr scs8hd_tapvpwrvgnd_1
XPHY_113 vgnd vpwr scs8hd_tapvpwrvgnd_1
XPHY_124 vgnd vpwr scs8hd_tapvpwrvgnd_1
XFILLER_30_154 vgnd vpwr scs8hd_decap_12
XFILLER_15_184 vgnd vpwr scs8hd_decap_12
XPHY_4 vgnd vpwr scs8hd_decap_3
XFILLER_7_86 vgnd vpwr scs8hd_decap_12
XFILLER_38_276 vgnd vpwr scs8hd_fill_1
XFILLER_29_232 vgnd vpwr scs8hd_decap_12
XFILLER_21_110 vgnd vpwr scs8hd_decap_12
XFILLER_35_257 vgnd vpwr scs8hd_decap_12
XFILLER_12_154 vgnd vpwr scs8hd_decap_12
XFILLER_37_39 vgnd vpwr scs8hd_decap_12
XFILLER_26_202 vgnd vpwr scs8hd_decap_12
XFILLER_32_227 vgnd vpwr scs8hd_decap_12
XFILLER_17_257 vgnd vpwr scs8hd_decap_12
XFILLER_5_117 vgnd vpwr scs8hd_decap_4
XFILLER_4_32 vgnd vpwr scs8hd_decap_12
XFILLER_4_150 vgnd vpwr scs8hd_decap_3
XFILLER_14_227 vgnd vpwr scs8hd_decap_12
XFILLER_13_74 vgnd vpwr scs8hd_decap_12
XFILLER_1_142 vgnd vpwr scs8hd_decap_12
XFILLER_38_93 vgnd vpwr scs8hd_decap_12
XFILLER_9_220 vgnd vpwr scs8hd_decap_12
Xlogical_tile_io_mode_io__7.logical_tile_io_mode_physical__iopad_0.GPIO_LATCH_mem.LATCH_0_.latch
+ data_in logical_tile_io_mode_io__7.logical_tile_io_mode_physical__iopad_0.GPIO_LATCH_mem.LATCH_0_.latch/Q
+ _06_/X vgnd vpwr scs8hd_lpflow_inputisolatch_1
XFILLER_11_208 vgnd vpwr scs8hd_decap_12
XFILLER_10_263 vgnd vpwr scs8hd_decap_12
XFILLER_28_105 vgnd vpwr scs8hd_decap_12
XFILLER_27_171 vgnd vpwr scs8hd_decap_12
XFILLER_19_62 vgnd vpwr scs8hd_decap_12
XFILLER_19_51 vgnd vpwr scs8hd_decap_8
XFILLER_33_196 vgnd vpwr scs8hd_decap_12
XFILLER_18_3 vgnd vpwr scs8hd_decap_12
X_05_ enable _05_/Y vgnd vpwr scs8hd_inv_8
XFILLER_24_141 vgnd vpwr scs8hd_decap_12
XFILLER_21_74 vgnd vpwr scs8hd_decap_12
XPHY_169 vgnd vpwr scs8hd_tapvpwrvgnd_1
XPHY_158 vgnd vpwr scs8hd_tapvpwrvgnd_1
XPHY_147 vgnd vpwr scs8hd_tapvpwrvgnd_1
XPHY_136 vgnd vpwr scs8hd_tapvpwrvgnd_1
XFILLER_0_218 vgnd vpwr scs8hd_decap_12
XPHY_103 vgnd vpwr scs8hd_tapvpwrvgnd_1
XPHY_114 vgnd vpwr scs8hd_tapvpwrvgnd_1
XPHY_125 vgnd vpwr scs8hd_tapvpwrvgnd_1
XFILLER_30_166 vgnd vpwr scs8hd_decap_12
XFILLER_15_196 vgnd vpwr scs8hd_decap_12
XPHY_5 vgnd vpwr scs8hd_decap_3
XFILLER_7_98 vgnd vpwr scs8hd_decap_12
XFILLER_12_166 vgnd vpwr scs8hd_decap_12
XFILLER_35_269 vgnd vpwr scs8hd_decap_8
XFILLER_32_239 vgnd vpwr scs8hd_decap_12
XFILLER_27_62 vgnd vpwr scs8hd_decap_12
XFILLER_27_51 vgnd vpwr scs8hd_decap_8
XFILLER_17_269 vgnd vpwr scs8hd_decap_8
XFILLER_4_44 vgnd vpwr scs8hd_decap_8
XFILLER_14_239 vgnd vpwr scs8hd_decap_12
XFILLER_13_86 vgnd vpwr scs8hd_decap_12
XFILLER_9_232 vgnd vpwr scs8hd_decap_12
XFILLER_1_154 vgnd vpwr scs8hd_decap_12
XFILLER_1_110 vpwr vgnd scs8hd_fill_2
XFILLER_6_202 vgnd vpwr scs8hd_decap_12
XFILLER_28_117 vgnd vpwr scs8hd_decap_12
XFILLER_35_51 vgnd vpwr scs8hd_decap_8
XFILLER_19_74 vgnd vpwr scs8hd_decap_12
XFILLER_10_32 vgnd vpwr scs8hd_decap_12
XFILLER_35_62 vgnd vpwr scs8hd_decap_12
Xlogical_tile_io_mode_io__2.logical_tile_io_mode_physical__iopad_0.GPIO_LATCH_mem.LATCH_0_.latch
+ data_in logical_tile_io_mode_io__2.logical_tile_io_mode_physical__iopad_0.GPIO_LATCH_mem.LATCH_0_.latch/Q
+ _11_/Y vgnd vpwr scs8hd_lpflow_inputisolatch_1
X_04_ address[2] _04_/Y vgnd vpwr scs8hd_inv_8
XPHY_159 vgnd vpwr scs8hd_tapvpwrvgnd_1
XPHY_148 vgnd vpwr scs8hd_tapvpwrvgnd_1
XPHY_137 vgnd vpwr scs8hd_tapvpwrvgnd_1
XPHY_104 vgnd vpwr scs8hd_tapvpwrvgnd_1
XPHY_115 vgnd vpwr scs8hd_tapvpwrvgnd_1
XPHY_126 vgnd vpwr scs8hd_tapvpwrvgnd_1
XFILLER_30_178 vgnd vpwr scs8hd_decap_12
XFILLER_21_86 vgnd vpwr scs8hd_decap_12
XPHY_6 vgnd vpwr scs8hd_decap_3
XFILLER_30_3 vgnd vpwr scs8hd_decap_12
XFILLER_21_123 vgnd vpwr scs8hd_decap_12
XFILLER_29_245 vgnd vpwr scs8hd_decap_12
XFILLER_12_178 vgnd vpwr scs8hd_decap_12
XFILLER_8_105 vgnd vpwr scs8hd_decap_12
XFILLER_7_171 vgnd vpwr scs8hd_decap_12
XFILLER_26_215 vgnd vpwr scs8hd_decap_12
XFILLER_40_251 vgnd vpwr scs8hd_decap_12
XFILLER_27_74 vgnd vpwr scs8hd_decap_12
XFILLER_4_130 vgnd vpwr scs8hd_decap_12
XFILLER_22_251 vgnd vpwr scs8hd_decap_12
XANTENNA_logical_tile_io_mode_io__0.logical_tile_io_mode_physical__iopad_0.GPIO_LATCH_mem.LATCH_0_.latch_D
+ data_in vgnd vpwr scs8hd_diode_2
XFILLER_13_98 vgnd vpwr scs8hd_decap_12
XFILLER_1_166 vgnd vpwr scs8hd_decap_12
XFILLER_8_3 vgnd vpwr scs8hd_decap_12
XFILLER_10_276 vgnd vpwr scs8hd_fill_1
XFILLER_1_79 vpwr vgnd scs8hd_fill_2
XANTENNA_logical_tile_io_mode_io__1.logical_tile_io_mode_physical__iopad_0.GPIO_LATCH_mem.LATCH_0_.latch_D
+ data_in vgnd vpwr scs8hd_diode_2
XFILLER_1_57 vpwr vgnd scs8hd_fill_2
XFILLER_28_129 vgnd vpwr scs8hd_decap_12
XFILLER_10_44 vgnd vpwr scs8hd_decap_12
XFILLER_42_187 vgnd vpwr scs8hd_decap_12
XFILLER_35_74 vgnd vpwr scs8hd_decap_12
XFILLER_27_184 vgnd vpwr scs8hd_decap_12
XFILLER_19_86 vgnd vpwr scs8hd_decap_12
X_03_ address[1] _07_/C vgnd vpwr scs8hd_inv_8
XFILLER_33_110 vgnd vpwr scs8hd_decap_12
XPHY_105 vgnd vpwr scs8hd_tapvpwrvgnd_1
XPHY_116 vgnd vpwr scs8hd_tapvpwrvgnd_1
XFILLER_24_154 vgnd vpwr scs8hd_decap_12
XFILLER_21_98 vgnd vpwr scs8hd_decap_12
XFILLER_15_110 vgnd vpwr scs8hd_decap_12
XPHY_149 vgnd vpwr scs8hd_tapvpwrvgnd_1
XPHY_138 vgnd vpwr scs8hd_tapvpwrvgnd_1
XANTENNA_logical_tile_io_mode_io__2.logical_tile_io_mode_physical__iopad_0.GPIO_LATCH_mem.LATCH_0_.latch_D
+ data_in vgnd vpwr scs8hd_diode_2
XPHY_7 vgnd vpwr scs8hd_decap_3
XPHY_127 vgnd vpwr scs8hd_tapvpwrvgnd_1
XFILLER_38_202 vgnd vpwr scs8hd_decap_12
XFILLER_23_3 vgnd vpwr scs8hd_decap_12
XFILLER_21_135 vgnd vpwr scs8hd_decap_12
XFILLER_29_257 vgnd vpwr scs8hd_decap_12
XFILLER_20_190 vgnd vpwr scs8hd_decap_12
XFILLER_16_32 vgnd vpwr scs8hd_decap_12
XANTENNA_logical_tile_io_mode_io__7.logical_tile_io_mode_physical__iopad_0.GPIO_LATCH_mem.LATCH_0_.latch_SLEEPB
+ _06_/X vgnd vpwr scs8hd_diode_2
XFILLER_8_117 vgnd vpwr scs8hd_decap_12
XFILLER_41_208 vgnd vpwr scs8hd_decap_12
XFILLER_26_227 vgnd vpwr scs8hd_decap_12
XANTENNA_logical_tile_io_mode_io__3.logical_tile_io_mode_physical__iopad_0.GPIO_LATCH_mem.LATCH_0_.latch_D
+ data_in vgnd vpwr scs8hd_diode_2
XFILLER_40_263 vgnd vpwr scs8hd_decap_12
XFILLER_27_86 vgnd vpwr scs8hd_decap_12
XFILLER_4_142 vgnd vpwr scs8hd_decap_8
XFILLER_23_208 vgnd vpwr scs8hd_decap_12
XFILLER_22_263 vgnd vpwr scs8hd_decap_12
XFILLER_1_178 vgnd vpwr scs8hd_decap_4
XFILLER_1_134 vpwr vgnd scs8hd_fill_2
XANTENNA_logical_tile_io_mode_io__4.logical_tile_io_mode_physical__iopad_0.GPIO_LATCH_mem.LATCH_0_.latch_D
+ data_in vgnd vpwr scs8hd_diode_2
XFILLER_9_245 vgnd vpwr scs8hd_decap_12
XFILLER_39_171 vgnd vpwr scs8hd_decap_12
XFILLER_24_32 vgnd vpwr scs8hd_decap_12
XFILLER_6_215 vgnd vpwr scs8hd_decap_12
XFILLER_36_141 vgnd vpwr scs8hd_decap_12
XFILLER_10_56 vgnd vpwr scs8hd_decap_12
XANTENNA_logical_tile_io_mode_io__5.logical_tile_io_mode_physical__iopad_0.GPIO_LATCH_mem.LATCH_0_.latch_D
+ data_in vgnd vpwr scs8hd_diode_2
XFILLER_42_199 vgnd vpwr scs8hd_decap_12
XFILLER_35_86 vgnd vpwr scs8hd_decap_12
XFILLER_27_196 vgnd vpwr scs8hd_decap_12
XFILLER_19_98 vgnd vpwr scs8hd_decap_12
XFILLER_2_251 vgnd vpwr scs8hd_decap_12
XFILLER_18_141 vgnd vpwr scs8hd_decap_12
XFILLER_24_166 vgnd vpwr scs8hd_decap_12
XPHY_139 vgnd vpwr scs8hd_tapvpwrvgnd_1
XPHY_106 vgnd vpwr scs8hd_tapvpwrvgnd_1
XPHY_117 vgnd vpwr scs8hd_tapvpwrvgnd_1
XPHY_128 vgnd vpwr scs8hd_tapvpwrvgnd_1
XFILLER_16_3 vgnd vpwr scs8hd_decap_12
XANTENNA_logical_tile_io_mode_io__6.logical_tile_io_mode_physical__iopad_0.GPIO_LATCH_mem.LATCH_0_.latch_D
+ data_in vgnd vpwr scs8hd_diode_2
XPHY_8 vgnd vpwr scs8hd_decap_3
XFILLER_29_269 vgnd vpwr scs8hd_decap_8
XFILLER_21_147 vgnd vpwr scs8hd_decap_12
XFILLER_16_44 vgnd vpwr scs8hd_decap_12
XFILLER_32_32 vgnd vpwr scs8hd_decap_12
XFILLER_8_129 vgnd vpwr scs8hd_decap_12
XFILLER_26_239 vgnd vpwr scs8hd_decap_12
XFILLER_7_184 vgnd vpwr scs8hd_decap_12
XFILLER_27_98 vgnd vpwr scs8hd_decap_12
XANTENNA_logical_tile_io_mode_io__7.logical_tile_io_mode_physical__iopad_0.GPIO_LATCH_mem.LATCH_0_.latch_D
+ data_in vgnd vpwr scs8hd_diode_2
XFILLER_4_154 vgnd vpwr scs8hd_decap_12
XFILLER_31_220 vgnd vpwr scs8hd_decap_12
XFILLER_13_220 vgnd vpwr scs8hd_decap_12
XFILLER_9_257 vgnd vpwr scs8hd_decap_12
XFILLER_40_32 vgnd vpwr scs8hd_decap_12
XFILLER_24_44 vgnd vpwr scs8hd_decap_12
XFILLER_1_15 vgnd vpwr scs8hd_decap_12
XFILLER_6_227 vgnd vpwr scs8hd_decap_12
XFILLER_42_156 vgnd vpwr scs8hd_decap_12
XFILLER_35_98 vgnd vpwr scs8hd_decap_12
XFILLER_10_68 vgnd vpwr scs8hd_decap_12
XFILLER_3_208 vgnd vpwr scs8hd_decap_12
XFILLER_33_123 vgnd vpwr scs8hd_decap_12
XFILLER_2_263 vgnd vpwr scs8hd_decap_12
XFILLER_24_178 vgnd vpwr scs8hd_decap_12
XANTENNA__10__A _07_/C vgnd vpwr scs8hd_diode_2
XFILLER_2_80 vgnd vpwr scs8hd_decap_6
XPHY_107 vgnd vpwr scs8hd_tapvpwrvgnd_1
XPHY_118 vgnd vpwr scs8hd_tapvpwrvgnd_1
XPHY_129 vgnd vpwr scs8hd_tapvpwrvgnd_1
XFILLER_38_215 vgnd vpwr scs8hd_decap_12
XFILLER_15_123 vgnd vpwr scs8hd_decap_12
XPHY_9 vgnd vpwr scs8hd_decap_3
XFILLER_21_159 vgnd vpwr scs8hd_decap_12
XFILLER_32_44 vgnd vpwr scs8hd_decap_12
XFILLER_16_56 vgnd vpwr scs8hd_decap_12
XANTENNA__05__A enable vgnd vpwr scs8hd_diode_2
XFILLER_34_251 vgnd vpwr scs8hd_decap_12
XFILLER_7_196 vgnd vpwr scs8hd_decap_12
XFILLER_40_276 vgnd vpwr scs8hd_fill_1
XFILLER_31_232 vgnd vpwr scs8hd_decap_12
XFILLER_16_251 vgnd vpwr scs8hd_decap_12
XFILLER_4_15 vgnd vpwr scs8hd_decap_12
XFILLER_4_111 vgnd vpwr scs8hd_decap_8
XFILLER_4_166 vgnd vpwr scs8hd_decap_12
XFILLER_22_276 vgnd vpwr scs8hd_fill_1
XFILLER_1_114 vpwr vgnd scs8hd_fill_2
XFILLER_38_32 vgnd vpwr scs8hd_decap_12
XFILLER_13_232 vgnd vpwr scs8hd_decap_12
XFILLER_9_269 vgnd vpwr scs8hd_decap_8
XFILLER_0_180 vgnd vpwr scs8hd_decap_6
XFILLER_39_184 vgnd vpwr scs8hd_decap_12
XFILLER_40_44 vgnd vpwr scs8hd_decap_12
XFILLER_24_56 vgnd vpwr scs8hd_decap_12
XFILLER_10_202 vgnd vpwr scs8hd_decap_12
XANTENNA__13__A address[1] vgnd vpwr scs8hd_diode_2
XFILLER_1_27 vgnd vpwr scs8hd_decap_12
XFILLER_6_3 vgnd vpwr scs8hd_decap_12
XFILLER_6_239 vgnd vpwr scs8hd_decap_12
XFILLER_39_3 vgnd vpwr scs8hd_decap_12
XFILLER_36_154 vgnd vpwr scs8hd_decap_12
XFILLER_42_168 vgnd vpwr scs8hd_decap_12
XFILLER_27_110 vgnd vpwr scs8hd_decap_12
XANTENNA__08__A address[1] vgnd vpwr scs8hd_diode_2
XFILLER_33_135 vgnd vpwr scs8hd_decap_12
XFILLER_18_154 vgnd vpwr scs8hd_decap_12
XFILLER_32_190 vgnd vpwr scs8hd_decap_12
XPHY_108 vgnd vpwr scs8hd_tapvpwrvgnd_1
XPHY_119 vgnd vpwr scs8hd_tapvpwrvgnd_1
XFILLER_30_105 vgnd vpwr scs8hd_decap_12
XFILLER_15_135 vgnd vpwr scs8hd_decap_12
XANTENNA__10__B _05_/Y vgnd vpwr scs8hd_diode_2
XFILLER_7_15 vgnd vpwr scs8hd_decap_12
XFILLER_7_59 vpwr vgnd scs8hd_fill_2
XFILLER_38_227 vgnd vpwr scs8hd_decap_12
XFILLER_14_190 vgnd vpwr scs8hd_decap_12
XFILLER_35_208 vgnd vpwr scs8hd_decap_12
XFILLER_32_56 vgnd vpwr scs8hd_decap_12
XFILLER_16_68 vgnd vpwr scs8hd_decap_12
XFILLER_12_105 vgnd vpwr scs8hd_decap_12
XFILLER_21_3 vgnd vpwr scs8hd_decap_12
XFILLER_11_171 vgnd vpwr scs8hd_decap_12
XFILLER_34_263 vgnd vpwr scs8hd_decap_12
XFILLER_17_208 vgnd vpwr scs8hd_decap_12
XFILLER_8_80 vgnd vpwr scs8hd_decap_12
XPHY_280 vgnd vpwr scs8hd_tapvpwrvgnd_1
XFILLER_16_263 vgnd vpwr scs8hd_decap_12
XFILLER_4_27 vgnd vpwr scs8hd_decap_4
XFILLER_4_178 vgnd vpwr scs8hd_decap_12
XFILLER_38_44 vgnd vpwr scs8hd_decap_12
XFILLER_5_70 vgnd vpwr scs8hd_fill_1
XFILLER_39_196 vgnd vpwr scs8hd_decap_12
XFILLER_40_56 vgnd vpwr scs8hd_decap_12
XFILLER_24_68 vgnd vpwr scs8hd_decap_12
XANTENNA__13__B _05_/Y vgnd vpwr scs8hd_diode_2
XFILLER_1_39 vgnd vpwr scs8hd_fill_1
XFILLER_42_125 vgnd vpwr scs8hd_decap_12
XFILLER_36_166 vgnd vpwr scs8hd_decap_12
XFILLER_10_15 vgnd vpwr scs8hd_decap_12
XANTENNA__08__B enable vgnd vpwr scs8hd_diode_2
XFILLER_33_147 vgnd vpwr scs8hd_decap_12
XFILLER_18_166 vgnd vpwr scs8hd_decap_12
XFILLER_2_276 vgnd vpwr scs8hd_fill_1
XPHY_109 vgnd vpwr scs8hd_tapvpwrvgnd_1
XFILLER_30_117 vgnd vpwr scs8hd_decap_12
XFILLER_15_147 vgnd vpwr scs8hd_decap_12