* NGSPICE file created from grid_io_bottom.ext - technology: sky130A

* Black-box entry subcircuit for sky130_fd_sc_hd__decap_12 abstract view
.subckt sky130_fd_sc_hd__decap_12 VGND VNB VPB VPWR
.ends

* Black-box entry subcircuit for sky130_fd_sc_hd__decap_6 abstract view
.subckt sky130_fd_sc_hd__decap_6 VGND VNB VPB VPWR
.ends

* Black-box entry subcircuit for sky130_fd_sc_hd__diode_2 abstract view
.subckt sky130_fd_sc_hd__diode_2 DIODE VGND VNB VPB VPWR
.ends

* Black-box entry subcircuit for sky130_fd_sc_hd__decap_8 abstract view
.subckt sky130_fd_sc_hd__decap_8 VGND VNB VPB VPWR
.ends

* Black-box entry subcircuit for sky130_fd_sc_hd__tapvpwrvgnd_1 abstract view
.subckt sky130_fd_sc_hd__tapvpwrvgnd_1 VGND VPWR
.ends

* Black-box entry subcircuit for sky130_fd_sc_hd__decap_3 abstract view
.subckt sky130_fd_sc_hd__decap_3 VGND VNB VPB VPWR
.ends

* Black-box entry subcircuit for sky130_fd_sc_hd__fill_1 abstract view
.subckt sky130_fd_sc_hd__fill_1 VGND VNB VPB VPWR
.ends

* Black-box entry subcircuit for sky130_fd_sc_hd__fill_2 abstract view
.subckt sky130_fd_sc_hd__fill_2 VGND VNB VPB VPWR
.ends

* Black-box entry subcircuit for sky130_fd_sc_hd__decap_4 abstract view
.subckt sky130_fd_sc_hd__decap_4 VGND VNB VPB VPWR
.ends

* Black-box entry subcircuit for sky130_fd_sc_hd__dfxbp_1 abstract view
.subckt sky130_fd_sc_hd__dfxbp_1 D Q Q_N CLK VGND VNB VPB VPWR
.ends

* Black-box entry subcircuit for sky130_fd_sc_hd__buf_2 abstract view
.subckt sky130_fd_sc_hd__buf_2 A X VGND VNB VPB VPWR
.ends

* Black-box entry subcircuit for sky130_fd_sc_hd__inv_1 abstract view
.subckt sky130_fd_sc_hd__inv_1 A Y VGND VNB VPB VPWR
.ends

.subckt grid_io_bottom ccff_head ccff_tail gfpga_pad_GPIO_A gfpga_pad_GPIO_IE gfpga_pad_GPIO_OE
+ gfpga_pad_GPIO_Y prog_clk top_width_0_height_0__pin_0_ top_width_0_height_0__pin_1_lower
+ top_width_0_height_0__pin_1_upper VPWR VGND
XFILLER_22_166 VGND VGND VPWR VPWR sky130_fd_sc_hd__decap_12
XFILLER_9_159 VGND VGND VPWR VPWR sky130_fd_sc_hd__decap_12
XFILLER_35_280 VGND VGND VPWR VPWR sky130_fd_sc_hd__decap_12
XFILLER_27_269 VGND VGND VPWR VPWR sky130_fd_sc_hd__decap_12
XFILLER_12_32 VGND VGND VPWR VPWR sky130_fd_sc_hd__decap_12
XFILLER_6_129 VGND VGND VPWR VPWR sky130_fd_sc_hd__decap_12
XFILLER_24_239 VGND VGND VPWR VPWR sky130_fd_sc_hd__decap_12
XFILLER_5_184 VGND VGND VPWR VPWR sky130_fd_sc_hd__decap_12
XFILLER_23_86 VGND VGND VPWR VPWR sky130_fd_sc_hd__decap_12
XFILLER_2_154 VGND VGND VPWR VPWR sky130_fd_sc_hd__decap_12
XFILLER_11_220 VGND VGND VPWR VPWR sky130_fd_sc_hd__decap_12
XFILLER_7_257 VGND VGND VPWR VPWR sky130_fd_sc_hd__decap_12
XFILLER_29_74 VGND VGND VPWR VPWR sky130_fd_sc_hd__decap_12
XFILLER_20_32 VGND VGND VPWR VPWR sky130_fd_sc_hd__decap_12
XFILLER_4_227 VGND VGND VPWR VPWR sky130_fd_sc_hd__decap_12
XFILLER_13_3 VGND VGND VPWR VPWR sky130_fd_sc_hd__decap_12
XFILLER_3_293 VGND VGND VPWR VPWR sky130_fd_sc_hd__decap_6
XFILLER_6_56 VGND VGND VPWR VPWR sky130_fd_sc_hd__decap_12
XANTENNA__2__A gfpga_pad_GPIO_Y VGND VGND VPWR VPWR sky130_fd_sc_hd__diode_2
XFILLER_15_98 VGND VGND VPWR VPWR sky130_fd_sc_hd__decap_8
XFILLER_1_208 VGND VGND VPWR VPWR sky130_fd_sc_hd__decap_12
XFILLER_31_123 VGND VGND VPWR VPWR sky130_fd_sc_hd__decap_12
XFILLER_31_86 VGND VGND VPWR VPWR sky130_fd_sc_hd__decap_12
XPHY_192 VGND VPWR sky130_fd_sc_hd__tapvpwrvgnd_1
XPHY_181 VGND VPWR sky130_fd_sc_hd__tapvpwrvgnd_1
XPHY_170 VGND VPWR sky130_fd_sc_hd__tapvpwrvgnd_1
XFILLER_0_230 VGND VGND VPWR VPWR sky130_fd_sc_hd__decap_12
XFILLER_22_178 VGND VGND VPWR VPWR sky130_fd_sc_hd__decap_12
XFILLER_13_123 VGND VGND VPWR VPWR sky130_fd_sc_hd__decap_12
XFILLER_35_292 VGND VGND VPWR VPWR sky130_fd_sc_hd__decap_6
XFILLER_18_215 VGND VGND VPWR VPWR sky130_fd_sc_hd__decap_12
XFILLER_12_44 VGND VGND VPWR VPWR sky130_fd_sc_hd__decap_12
XFILLER_12_22 VGND VGND VPWR VPWR sky130_fd_sc_hd__decap_8
XFILLER_17_281 VGND VGND VPWR VPWR sky130_fd_sc_hd__decap_12
XFILLER_5_196 VGND VGND VPWR VPWR sky130_fd_sc_hd__decap_12
XFILLER_32_251 VGND VGND VPWR VPWR sky130_fd_sc_hd__decap_12
XFILLER_23_98 VGND VGND VPWR VPWR sky130_fd_sc_hd__decap_12
XFILLER_14_251 VGND VGND VPWR VPWR sky130_fd_sc_hd__decap_12
XFILLER_2_166 VGND VGND VPWR VPWR sky130_fd_sc_hd__decap_12
XFILLER_20_276 VGND VGND VPWR VPWR sky130_fd_sc_hd__decap_12
XFILLER_18_32 VGND VGND VPWR VPWR sky130_fd_sc_hd__decap_12
XFILLER_11_232 VGND VGND VPWR VPWR sky130_fd_sc_hd__decap_12
XFILLER_7_269 VGND VGND VPWR VPWR sky130_fd_sc_hd__decap_12
XFILLER_29_86 VGND VGND VPWR VPWR sky130_fd_sc_hd__decap_12
XFILLER_20_44 VGND VGND VPWR VPWR sky130_fd_sc_hd__decap_12
XFILLER_4_239 VGND VGND VPWR VPWR sky130_fd_sc_hd__decap_12
XFILLER_19_184 VGND VGND VPWR VPWR sky130_fd_sc_hd__decap_12
XFILLER_6_68 VGND VGND VPWR VPWR sky130_fd_sc_hd__decap_12
XFILLER_34_154 VGND VGND VPWR VPWR sky130_fd_sc_hd__decap_12
XFILLER_25_110 VGND VGND VPWR VPWR sky130_fd_sc_hd__decap_12
XFILLER_31_135 VGND VGND VPWR VPWR sky130_fd_sc_hd__decap_12
XFILLER_31_98 VGND VGND VPWR VPWR sky130_fd_sc_hd__decap_12
XPHY_193 VGND VPWR sky130_fd_sc_hd__tapvpwrvgnd_1
XPHY_182 VGND VPWR sky130_fd_sc_hd__tapvpwrvgnd_1
XPHY_171 VGND VPWR sky130_fd_sc_hd__tapvpwrvgnd_1
XPHY_160 VGND VPWR sky130_fd_sc_hd__tapvpwrvgnd_1
XFILLER_16_154 VGND VGND VPWR VPWR sky130_fd_sc_hd__decap_12
XFILLER_0_242 VGND VGND VPWR VPWR sky130_fd_sc_hd__decap_6
XFILLER_30_190 VGND VGND VPWR VPWR sky130_fd_sc_hd__decap_12
XFILLER_26_32 VGND VGND VPWR VPWR sky130_fd_sc_hd__decap_12
XFILLER_13_135 VGND VGND VPWR VPWR sky130_fd_sc_hd__decap_12
XFILLER_12_190 VGND VGND VPWR VPWR sky130_fd_sc_hd__decap_12
XFILLER_12_56 VGND VGND VPWR VPWR sky130_fd_sc_hd__decap_12
XFILLER_10_105 VGND VGND VPWR VPWR sky130_fd_sc_hd__decap_12
XFILLER_33_208 VGND VGND VPWR VPWR sky130_fd_sc_hd__decap_12
XFILLER_18_227 VGND VGND VPWR VPWR sky130_fd_sc_hd__decap_12
XFILLER_32_296 VGND VGND VPWR VPWR sky130_fd_sc_hd__decap_3
XFILLER_32_263 VGND VGND VPWR VPWR sky130_fd_sc_hd__decap_12
XFILLER_17_293 VGND VGND VPWR VPWR sky130_fd_sc_hd__decap_6
XFILLER_15_208 VGND VGND VPWR VPWR sky130_fd_sc_hd__decap_12
XFILLER_14_263 VGND VGND VPWR VPWR sky130_fd_sc_hd__decap_12
XFILLER_0_15 VGND VGND VPWR VPWR sky130_fd_sc_hd__decap_12
XFILLER_2_178 VGND VGND VPWR VPWR sky130_fd_sc_hd__decap_12
XFILLER_3_3 VGND VGND VPWR VPWR sky130_fd_sc_hd__decap_12
XFILLER_14_296 VGND VGND VPWR VPWR sky130_fd_sc_hd__decap_3
XFILLER_34_32 VGND VGND VPWR VPWR sky130_fd_sc_hd__decap_12
XFILLER_20_288 VGND VGND VPWR VPWR sky130_fd_sc_hd__decap_8
XFILLER_18_44 VGND VGND VPWR VPWR sky130_fd_sc_hd__decap_12
XFILLER_20_56 VGND VGND VPWR VPWR sky130_fd_sc_hd__decap_12
XFILLER_29_98 VGND VGND VPWR VPWR sky130_fd_sc_hd__decap_12
XFILLER_28_141 VGND VGND VPWR VPWR sky130_fd_sc_hd__decap_12
XFILLER_34_166 VGND VGND VPWR VPWR sky130_fd_sc_hd__decap_12
XFILLER_19_196 VGND VGND VPWR VPWR sky130_fd_sc_hd__decap_12
XFILLER_16_166 VGND VGND VPWR VPWR sky130_fd_sc_hd__decap_12
XFILLER_0_298 VGND VGND VPWR VPWR sky130_fd_sc_hd__fill_1
XFILLER_31_147 VGND VGND VPWR VPWR sky130_fd_sc_hd__decap_12
XPHY_194 VGND VPWR sky130_fd_sc_hd__tapvpwrvgnd_1
XPHY_183 VGND VPWR sky130_fd_sc_hd__tapvpwrvgnd_1
XPHY_172 VGND VPWR sky130_fd_sc_hd__tapvpwrvgnd_1
XPHY_161 VGND VPWR sky130_fd_sc_hd__tapvpwrvgnd_1
XPHY_150 VGND VPWR sky130_fd_sc_hd__tapvpwrvgnd_1
XFILLER_26_44 VGND VGND VPWR VPWR sky130_fd_sc_hd__decap_12
XFILLER_13_147 VGND VGND VPWR VPWR sky130_fd_sc_hd__decap_12
XFILLER_3_15 VGND VGND VPWR VPWR sky130_fd_sc_hd__decap_12
XFILLER_3_59 VGND VGND VPWR VPWR sky130_fd_sc_hd__fill_2
XFILLER_35_261 VGND VGND VPWR VPWR sky130_fd_sc_hd__decap_12
XFILLER_12_68 VGND VGND VPWR VPWR sky130_fd_sc_hd__decap_12
XFILLER_10_117 VGND VGND VPWR VPWR sky130_fd_sc_hd__decap_12
XFILLER_18_239 VGND VGND VPWR VPWR sky130_fd_sc_hd__decap_12
XFILLER_5_110 VGND VGND VPWR VPWR sky130_fd_sc_hd__decap_12
XFILLER_4_80 VGND VGND VPWR VPWR sky130_fd_sc_hd__decap_12
XFILLER_23_220 VGND VGND VPWR VPWR sky130_fd_sc_hd__decap_12
XFILLER_0_27 VGND VGND VPWR VPWR sky130_fd_sc_hd__decap_4
XFILLER_29_3 VGND VGND VPWR VPWR sky130_fd_sc_hd__decap_12
XFILLER_34_44 VGND VGND VPWR VPWR sky130_fd_sc_hd__decap_12
XFILLER_18_56 VGND VGND VPWR VPWR sky130_fd_sc_hd__decap_12
XFILLER_11_245 VGND VGND VPWR VPWR sky130_fd_sc_hd__decap_12
XFILLER_20_68 VGND VGND VPWR VPWR sky130_fd_sc_hd__decap_12
XFILLER_6_15 VGND VGND VPWR VPWR sky130_fd_sc_hd__decap_12
XFILLER_34_178 VGND VGND VPWR VPWR sky130_fd_sc_hd__decap_12
XFILLER_25_123 VGND VGND VPWR VPWR sky130_fd_sc_hd__decap_12
XFILLER_0_211 VGND VGND VPWR VPWR sky130_fd_sc_hd__decap_6
XFILLER_31_159 VGND VGND VPWR VPWR sky130_fd_sc_hd__decap_12
XPHY_195 VGND VPWR sky130_fd_sc_hd__tapvpwrvgnd_1
XPHY_184 VGND VPWR sky130_fd_sc_hd__tapvpwrvgnd_1
XPHY_173 VGND VPWR sky130_fd_sc_hd__tapvpwrvgnd_1
XPHY_162 VGND VPWR sky130_fd_sc_hd__tapvpwrvgnd_1
XPHY_151 VGND VPWR sky130_fd_sc_hd__tapvpwrvgnd_1
XFILLER_16_178 VGND VGND VPWR VPWR sky130_fd_sc_hd__decap_12
XPHY_140 VGND VPWR sky130_fd_sc_hd__tapvpwrvgnd_1
XFILLER_11_3 VGND VGND VPWR VPWR sky130_fd_sc_hd__fill_2
XFILLER_26_56 VGND VGND VPWR VPWR sky130_fd_sc_hd__decap_12
XFILLER_29_281 VGND VGND VPWR VPWR sky130_fd_sc_hd__decap_12
XFILLER_13_159 VGND VGND VPWR VPWR sky130_fd_sc_hd__decap_12
XFILLER_3_27 VGND VGND VPWR VPWR sky130_fd_sc_hd__decap_12
XFILLER_35_273 VGND VGND VPWR VPWR sky130_fd_sc_hd__decap_6
XFILLER_8_141 VGND VGND VPWR VPWR sky130_fd_sc_hd__decap_12
XFILLER_10_129 VGND VGND VPWR VPWR sky130_fd_sc_hd__decap_12
XFILLER_26_251 VGND VGND VPWR VPWR sky130_fd_sc_hd__decap_12
XFILLER_32_276 VGND VGND VPWR VPWR sky130_fd_sc_hd__decap_12
XFILLER_23_232 VGND VGND VPWR VPWR sky130_fd_sc_hd__decap_12
XFILLER_14_276 VGND VGND VPWR VPWR sky130_fd_sc_hd__decap_12
XFILLER_9_15 VGND VGND VPWR VPWR sky130_fd_sc_hd__decap_12
XFILLER_9_59 VGND VGND VPWR VPWR sky130_fd_sc_hd__fill_2
XFILLER_20_202 VGND VGND VPWR VPWR sky130_fd_sc_hd__decap_12
XFILLER_18_68 VGND VGND VPWR VPWR sky130_fd_sc_hd__decap_12
XFILLER_34_56 VGND VGND VPWR VPWR sky130_fd_sc_hd__decap_12
XFILLER_11_257 VGND VGND VPWR VPWR sky130_fd_sc_hd__decap_12
XFILLER_28_154 VGND VGND VPWR VPWR sky130_fd_sc_hd__decap_12
XFILLER_19_110 VGND VGND VPWR VPWR sky130_fd_sc_hd__decap_12
XFILLER_3_220 VGND VGND VPWR VPWR sky130_fd_sc_hd__decap_12
XFILLER_6_27 VGND VGND VPWR VPWR sky130_fd_sc_hd__decap_4
XFILLER_10_80 VGND VGND VPWR VPWR sky130_fd_sc_hd__decap_12
XFILLER_25_135 VGND VGND VPWR VPWR sky130_fd_sc_hd__decap_12
XPHY_196 VGND VPWR sky130_fd_sc_hd__tapvpwrvgnd_1
XFILLER_24_190 VGND VGND VPWR VPWR sky130_fd_sc_hd__decap_12
XPHY_185 VGND VPWR sky130_fd_sc_hd__tapvpwrvgnd_1
XPHY_174 VGND VPWR sky130_fd_sc_hd__tapvpwrvgnd_1
XPHY_163 VGND VPWR sky130_fd_sc_hd__tapvpwrvgnd_1
XPHY_152 VGND VPWR sky130_fd_sc_hd__tapvpwrvgnd_1
XPHY_141 VGND VPWR sky130_fd_sc_hd__tapvpwrvgnd_1
XPHY_130 VGND VPWR sky130_fd_sc_hd__tapvpwrvgnd_1
XFILLER_22_105 VGND VGND VPWR VPWR sky130_fd_sc_hd__decap_12
XFILLER_29_293 VGND VGND VPWR VPWR sky130_fd_sc_hd__decap_6
XFILLER_26_68 VGND VGND VPWR VPWR sky130_fd_sc_hd__decap_12
XFILLER_21_171 VGND VGND VPWR VPWR sky130_fd_sc_hd__decap_12
XFILLER_3_39 VGND VGND VPWR VPWR sky130_fd_sc_hd__decap_12
XFILLER_35_230 VGND VGND VPWR VPWR sky130_fd_sc_hd__decap_12
XFILLER_27_208 VGND VGND VPWR VPWR sky130_fd_sc_hd__decap_12
XFILLER_26_296 VGND VGND VPWR VPWR sky130_fd_sc_hd__decap_3
XFILLER_26_263 VGND VGND VPWR VPWR sky130_fd_sc_hd__decap_12
XFILLER_32_288 VGND VGND VPWR VPWR sky130_fd_sc_hd__decap_8
XFILLER_5_123 VGND VGND VPWR VPWR sky130_fd_sc_hd__decap_12
XFILLER_4_93 VGND VGND VPWR VPWR sky130_fd_sc_hd__decap_12
XFILLER_14_288 VGND VGND VPWR VPWR sky130_fd_sc_hd__decap_8
XFILLER_9_27 VGND VGND VPWR VPWR sky130_fd_sc_hd__decap_12
XFILLER_9_281 VGND VGND VPWR VPWR sky130_fd_sc_hd__decap_12
XFILLER_34_68 VGND VGND VPWR VPWR sky130_fd_sc_hd__decap_12
XFILLER_11_269 VGND VGND VPWR VPWR sky130_fd_sc_hd__decap_12
XFILLER_1_3 VGND VGND VPWR VPWR sky130_fd_sc_hd__decap_12
XFILLER_34_3 VGND VGND VPWR VPWR sky130_fd_sc_hd__decap_12
XFILLER_6_251 VGND VGND VPWR VPWR sky130_fd_sc_hd__decap_12
XFILLER_28_166 VGND VGND VPWR VPWR sky130_fd_sc_hd__decap_12
XFILLER_20_15 VGND VGND VPWR VPWR sky130_fd_sc_hd__decap_12
XFILLER_3_232 VGND VGND VPWR VPWR sky130_fd_sc_hd__decap_12
XFILLER_25_147 VGND VGND VPWR VPWR sky130_fd_sc_hd__decap_12
XFILLER_15_59 VGND VGND VPWR VPWR sky130_fd_sc_hd__fill_2
XFILLER_15_15 VGND VGND VPWR VPWR sky130_fd_sc_hd__decap_12
XPHY_197 VGND VPWR sky130_fd_sc_hd__tapvpwrvgnd_1
XPHY_186 VGND VPWR sky130_fd_sc_hd__tapvpwrvgnd_1
XPHY_175 VGND VPWR sky130_fd_sc_hd__tapvpwrvgnd_1
XPHY_164 VGND VPWR sky130_fd_sc_hd__tapvpwrvgnd_1
XPHY_153 VGND VPWR sky130_fd_sc_hd__tapvpwrvgnd_1
XPHY_142 VGND VPWR sky130_fd_sc_hd__tapvpwrvgnd_1
XPHY_131 VGND VPWR sky130_fd_sc_hd__tapvpwrvgnd_1
XPHY_120 VGND VPWR sky130_fd_sc_hd__tapvpwrvgnd_1
XFILLER_22_117 VGND VGND VPWR VPWR sky130_fd_sc_hd__decap_12
XPHY_0 VGND VGND VPWR VPWR sky130_fd_sc_hd__decap_3
XFILLER_16_80 VGND VGND VPWR VPWR sky130_fd_sc_hd__decap_12
XFILLER_8_154 VGND VGND VPWR VPWR sky130_fd_sc_hd__decap_12
XFILLER_35_242 VGND VGND VPWR VPWR sky130_fd_sc_hd__decap_6
XFILLER_17_220 VGND VGND VPWR VPWR sky130_fd_sc_hd__decap_12
XFILLER_5_135 VGND VGND VPWR VPWR sky130_fd_sc_hd__decap_12
XFILLER_23_245 VGND VGND VPWR VPWR sky130_fd_sc_hd__decap_12
XFILLER_23_59 VGND VGND VPWR VPWR sky130_fd_sc_hd__fill_2
XFILLER_23_15 VGND VGND VPWR VPWR sky130_fd_sc_hd__decap_12
XFILLER_4_190 VGND VGND VPWR VPWR sky130_fd_sc_hd__decap_12
XFILLER_2_105 VGND VGND VPWR VPWR sky130_fd_sc_hd__decap_12
XFILLER_9_39 VGND VGND VPWR VPWR sky130_fd_sc_hd__decap_12
XFILLER_20_215 VGND VGND VPWR VPWR sky130_fd_sc_hd__decap_12
XFILLER_1_171 VGND VGND VPWR VPWR sky130_fd_sc_hd__decap_12
XFILLER_9_293 VGND VGND VPWR VPWR sky130_fd_sc_hd__decap_6
XFILLER_18_15 VGND VGND VPWR VPWR sky130_fd_sc_hd__decap_12
XFILLER_7_208 VGND VGND VPWR VPWR sky130_fd_sc_hd__decap_12
XFILLER_27_3 VGND VGND VPWR VPWR sky130_fd_sc_hd__decap_12
XFILLER_24_80 VGND VGND VPWR VPWR sky130_fd_sc_hd__decap_12
XFILLER_6_263 VGND VGND VPWR VPWR sky130_fd_sc_hd__decap_12
XFILLER_6_296 VGND VGND VPWR VPWR sky130_fd_sc_hd__decap_3
XFILLER_20_27 VGND VGND VPWR VPWR sky130_fd_sc_hd__decap_4
XFILLER_1_62 VGND VGND VPWR VPWR sky130_fd_sc_hd__decap_12
XFILLER_1_51 VGND VGND VPWR VPWR sky130_fd_sc_hd__decap_8
XFILLER_28_178 VGND VGND VPWR VPWR sky130_fd_sc_hd__decap_12
XFILLER_19_123 VGND VGND VPWR VPWR sky130_fd_sc_hd__decap_12
XFILLER_10_93 VGND VGND VPWR VPWR sky130_fd_sc_hd__decap_12
XFILLER_25_159 VGND VGND VPWR VPWR sky130_fd_sc_hd__decap_12
XFILLER_15_27 VGND VGND VPWR VPWR sky130_fd_sc_hd__decap_12
XFILLER_31_59 VGND VGND VPWR VPWR sky130_fd_sc_hd__fill_2
XFILLER_31_15 VGND VGND VPWR VPWR sky130_fd_sc_hd__decap_12
XPHY_198 VGND VPWR sky130_fd_sc_hd__tapvpwrvgnd_1
XPHY_187 VGND VPWR sky130_fd_sc_hd__tapvpwrvgnd_1
XPHY_176 VGND VPWR sky130_fd_sc_hd__tapvpwrvgnd_1
XPHY_165 VGND VPWR sky130_fd_sc_hd__tapvpwrvgnd_1
XPHY_154 VGND VPWR sky130_fd_sc_hd__tapvpwrvgnd_1
XPHY_143 VGND VPWR sky130_fd_sc_hd__tapvpwrvgnd_1
XPHY_132 VGND VPWR sky130_fd_sc_hd__tapvpwrvgnd_1
XPHY_110 VGND VPWR sky130_fd_sc_hd__tapvpwrvgnd_1
XPHY_121 VGND VPWR sky130_fd_sc_hd__tapvpwrvgnd_1
XFILLER_22_129 VGND VGND VPWR VPWR sky130_fd_sc_hd__decap_12
XPHY_1 VGND VGND VPWR VPWR sky130_fd_sc_hd__decap_3
XFILLER_26_15 VGND VGND VPWR VPWR sky130_fd_sc_hd__decap_12
XFILLER_21_184 VGND VGND VPWR VPWR sky130_fd_sc_hd__decap_12
XFILLER_32_80 VGND VGND VPWR VPWR sky130_fd_sc_hd__decap_12
XFILLER_8_166 VGND VGND VPWR VPWR sky130_fd_sc_hd__decap_12
XFILLER_35_298 VGND VGND VPWR VPWR sky130_fd_sc_hd__fill_1
XFILLER_26_276 VGND VGND VPWR VPWR sky130_fd_sc_hd__decap_12
XFILLER_5_147 VGND VGND VPWR VPWR sky130_fd_sc_hd__decap_12
XFILLER_32_202 VGND VGND VPWR VPWR sky130_fd_sc_hd__decap_12
XFILLER_17_232 VGND VGND VPWR VPWR sky130_fd_sc_hd__decap_12
XFILLER_23_257 VGND VGND VPWR VPWR sky130_fd_sc_hd__decap_12
XFILLER_23_27 VGND VGND VPWR VPWR sky130_fd_sc_hd__decap_12
XFILLER_14_202 VGND VGND VPWR VPWR sky130_fd_sc_hd__decap_12
XFILLER_2_117 VGND VGND VPWR VPWR sky130_fd_sc_hd__decap_12
XFILLER_20_227 VGND VGND VPWR VPWR sky130_fd_sc_hd__decap_12
XFILLER_34_15 VGND VGND VPWR VPWR sky130_fd_sc_hd__decap_12
XFILLER_18_27 VGND VGND VPWR VPWR sky130_fd_sc_hd__decap_4
XFILLER_29_15 VGND VGND VPWR VPWR sky130_fd_sc_hd__decap_12
XFILLER_1_74 VGND VGND VPWR VPWR sky130_fd_sc_hd__decap_12
XFILLER_29_59 VGND VGND VPWR VPWR sky130_fd_sc_hd__fill_2
XFILLER_3_245 VGND VGND VPWR VPWR sky130_fd_sc_hd__decap_12
XFILLER_34_105 VGND VGND VPWR VPWR sky130_fd_sc_hd__decap_12
XFILLER_19_135 VGND VGND VPWR VPWR sky130_fd_sc_hd__decap_12
XFILLER_33_171 VGND VGND VPWR VPWR sky130_fd_sc_hd__decap_12
XFILLER_31_27 VGND VGND VPWR VPWR sky130_fd_sc_hd__decap_12
XFILLER_18_190 VGND VGND VPWR VPWR sky130_fd_sc_hd__decap_12
XFILLER_16_105 VGND VGND VPWR VPWR sky130_fd_sc_hd__decap_12
XFILLER_15_39 VGND VGND VPWR VPWR sky130_fd_sc_hd__decap_12
XPHY_100 VGND VPWR sky130_fd_sc_hd__tapvpwrvgnd_1
XPHY_199 VGND VPWR sky130_fd_sc_hd__tapvpwrvgnd_1
XPHY_188 VGND VPWR sky130_fd_sc_hd__tapvpwrvgnd_1
XPHY_177 VGND VPWR sky130_fd_sc_hd__tapvpwrvgnd_1
XPHY_166 VGND VPWR sky130_fd_sc_hd__tapvpwrvgnd_1
XPHY_155 VGND VPWR sky130_fd_sc_hd__tapvpwrvgnd_1
XFILLER_15_171 VGND VGND VPWR VPWR sky130_fd_sc_hd__decap_12
XPHY_144 VGND VPWR sky130_fd_sc_hd__tapvpwrvgnd_1
XPHY_133 VGND VPWR sky130_fd_sc_hd__tapvpwrvgnd_1
XPHY_2 VGND VGND VPWR VPWR sky130_fd_sc_hd__decap_3
XPHY_111 VGND VPWR sky130_fd_sc_hd__tapvpwrvgnd_1
XPHY_122 VGND VPWR sky130_fd_sc_hd__tapvpwrvgnd_1
XFILLER_11_7 VGND VGND VPWR VPWR sky130_fd_sc_hd__fill_2
XFILLER_30_141 VGND VGND VPWR VPWR sky130_fd_sc_hd__decap_12
XFILLER_26_27 VGND VGND VPWR VPWR sky130_fd_sc_hd__decap_4
XFILLER_21_196 VGND VGND VPWR VPWR sky130_fd_sc_hd__decap_12
XFILLER_7_51 VGND VGND VPWR VPWR sky130_fd_sc_hd__decap_8
XFILLER_7_62 VGND VGND VPWR VPWR sky130_fd_sc_hd__decap_12
XFILLER_29_230 VGND VGND VPWR VPWR sky130_fd_sc_hd__fill_2
XFILLER_16_93 VGND VGND VPWR VPWR sky130_fd_sc_hd__decap_12
XFILLER_12_141 VGND VGND VPWR VPWR sky130_fd_sc_hd__decap_12
XFILLER_8_178 VGND VGND VPWR VPWR sky130_fd_sc_hd__decap_12
XFILLER_35_211 VGND VGND VPWR VPWR sky130_fd_sc_hd__decap_6
XFILLER_26_288 VGND VGND VPWR VPWR sky130_fd_sc_hd__decap_8
XFILLER_5_159 VGND VGND VPWR VPWR sky130_fd_sc_hd__decap_12
XFILLER_23_269 VGND VGND VPWR VPWR sky130_fd_sc_hd__decap_12
XFILLER_23_39 VGND VGND VPWR VPWR sky130_fd_sc_hd__decap_12
XFILLER_2_129 VGND VGND VPWR VPWR sky130_fd_sc_hd__decap_12
XFILLER_1_184 VGND VGND VPWR VPWR sky130_fd_sc_hd__decap_12
XFILLER_34_27 VGND VGND VPWR VPWR sky130_fd_sc_hd__decap_4
XFILLER_20_239 VGND VGND VPWR VPWR sky130_fd_sc_hd__decap_12
XFILLER_24_93 VGND VGND VPWR VPWR sky130_fd_sc_hd__decap_12
XFILLER_1_86 VGND VGND VPWR VPWR sky130_fd_sc_hd__decap_12
XFILLER_6_276 VGND VGND VPWR VPWR sky130_fd_sc_hd__decap_12
XFILLER_29_27 VGND VGND VPWR VPWR sky130_fd_sc_hd__decap_12
XFILLER_3_257 VGND VGND VPWR VPWR sky130_fd_sc_hd__decap_12
XFILLER_34_117 VGND VGND VPWR VPWR sky130_fd_sc_hd__decap_12
XFILLER_32_3 VGND VGND VPWR VPWR sky130_fd_sc_hd__decap_12
XFILLER_19_147 VGND VGND VPWR VPWR sky130_fd_sc_hd__decap_12
XFILLER_31_39 VGND VGND VPWR VPWR sky130_fd_sc_hd__decap_12
XFILLER_0_249 VGND VGND VPWR VPWR sky130_fd_sc_hd__decap_12
XPHY_189 VGND VPWR sky130_fd_sc_hd__tapvpwrvgnd_1
XPHY_178 VGND VPWR sky130_fd_sc_hd__tapvpwrvgnd_1
XPHY_167 VGND VPWR sky130_fd_sc_hd__tapvpwrvgnd_1
XPHY_156 VGND VPWR sky130_fd_sc_hd__tapvpwrvgnd_1
XFILLER_16_117 VGND VGND VPWR VPWR sky130_fd_sc_hd__decap_12
XPHY_145 VGND VPWR sky130_fd_sc_hd__tapvpwrvgnd_1
XPHY_134 VGND VPWR sky130_fd_sc_hd__tapvpwrvgnd_1
XPHY_101 VGND VPWR sky130_fd_sc_hd__tapvpwrvgnd_1
XPHY_112 VGND VPWR sky130_fd_sc_hd__tapvpwrvgnd_1
XPHY_123 VGND VPWR sky130_fd_sc_hd__tapvpwrvgnd_1
XPHY_3 VGND VGND VPWR VPWR sky130_fd_sc_hd__decap_3
XFILLER_7_74 VGND VGND VPWR VPWR sky130_fd_sc_hd__decap_12
XFILLER_29_242 VGND VGND VPWR VPWR sky130_fd_sc_hd__fill_2
XFILLER_32_93 VGND VGND VPWR VPWR sky130_fd_sc_hd__decap_12
XANTENNA_logical_tile_io_mode_io__0.logical_tile_io_mode_physical__iopad_0.GPIO_sky130_fd_sc_hd__dfxbp_1_mem.sky130_fd_sc_hd__dfxbp_1_0__CLK
+ prog_clk VGND VGND VPWR VPWR sky130_fd_sc_hd__diode_2
XFILLER_32_215 VGND VGND VPWR VPWR sky130_fd_sc_hd__decap_12
XFILLER_17_245 VGND VGND VPWR VPWR sky130_fd_sc_hd__decap_12
XFILLER_31_281 VGND VGND VPWR VPWR sky130_fd_sc_hd__decap_12
XFILLER_14_215 VGND VGND VPWR VPWR sky130_fd_sc_hd__decap_12
XFILLER_13_62 VGND VGND VPWR VPWR sky130_fd_sc_hd__decap_12
XFILLER_13_51 VGND VGND VPWR VPWR sky130_fd_sc_hd__decap_8
XFILLER_1_196 VGND VGND VPWR VPWR sky130_fd_sc_hd__decap_12
XFILLER_13_281 VGND VGND VPWR VPWR sky130_fd_sc_hd__decap_12
XFILLER_1_98 VGND VGND VPWR VPWR sky130_fd_sc_hd__decap_12
XFILLER_6_288 VGND VGND VPWR VPWR sky130_fd_sc_hd__decap_8
XFILLER_10_251 VGND VGND VPWR VPWR sky130_fd_sc_hd__decap_12
XFILLER_29_39 VGND VGND VPWR VPWR sky130_fd_sc_hd__decap_12
XFILLER_34_129 VGND VGND VPWR VPWR sky130_fd_sc_hd__decap_12
XFILLER_19_159 VGND VGND VPWR VPWR sky130_fd_sc_hd__decap_12
XFILLER_3_269 VGND VGND VPWR VPWR sky130_fd_sc_hd__decap_12
XFILLER_33_184 VGND VGND VPWR VPWR sky130_fd_sc_hd__decap_12
XFILLER_25_3 VGND VGND VPWR VPWR sky130_fd_sc_hd__decap_12
XPHY_179 VGND VPWR sky130_fd_sc_hd__tapvpwrvgnd_1
XFILLER_21_62 VGND VGND VPWR VPWR sky130_fd_sc_hd__decap_12
XFILLER_21_51 VGND VGND VPWR VPWR sky130_fd_sc_hd__decap_8
XPHY_168 VGND VPWR sky130_fd_sc_hd__tapvpwrvgnd_1
XPHY_157 VGND VPWR sky130_fd_sc_hd__tapvpwrvgnd_1
XFILLER_16_129 VGND VGND VPWR VPWR sky130_fd_sc_hd__decap_12
XPHY_146 VGND VPWR sky130_fd_sc_hd__tapvpwrvgnd_1
XPHY_135 VGND VPWR sky130_fd_sc_hd__tapvpwrvgnd_1
XPHY_102 VGND VPWR sky130_fd_sc_hd__tapvpwrvgnd_1
XPHY_113 VGND VPWR sky130_fd_sc_hd__tapvpwrvgnd_1
XPHY_124 VGND VPWR sky130_fd_sc_hd__tapvpwrvgnd_1
XFILLER_30_154 VGND VGND VPWR VPWR sky130_fd_sc_hd__decap_12
XFILLER_15_184 VGND VGND VPWR VPWR sky130_fd_sc_hd__decap_12
XPHY_4 VGND VGND VPWR VPWR sky130_fd_sc_hd__decap_3
XFILLER_7_86 VGND VGND VPWR VPWR sky130_fd_sc_hd__decap_12
XFILLER_21_110 VGND VGND VPWR VPWR sky130_fd_sc_hd__decap_12
XFILLER_12_154 VGND VGND VPWR VPWR sky130_fd_sc_hd__decap_12
XFILLER_26_202 VGND VGND VPWR VPWR sky130_fd_sc_hd__decap_12
XFILLER_32_227 VGND VGND VPWR VPWR sky130_fd_sc_hd__decap_12
XFILLER_17_257 VGND VGND VPWR VPWR sky130_fd_sc_hd__decap_12
XFILLER_31_293 VGND VGND VPWR VPWR sky130_fd_sc_hd__decap_6
XFILLER_4_32 VGND VGND VPWR VPWR sky130_fd_sc_hd__decap_12
XFILLER_14_227 VGND VGND VPWR VPWR sky130_fd_sc_hd__decap_12
XFILLER_13_74 VGND VGND VPWR VPWR sky130_fd_sc_hd__decap_12
XFILLER_13_293 VGND VGND VPWR VPWR sky130_fd_sc_hd__decap_6
XFILLER_9_220 VGND VGND VPWR VPWR sky130_fd_sc_hd__decap_12
XFILLER_11_208 VGND VGND VPWR VPWR sky130_fd_sc_hd__decap_12
XFILLER_10_263 VGND VGND VPWR VPWR sky130_fd_sc_hd__decap_12
XFILLER_10_296 VGND VGND VPWR VPWR sky130_fd_sc_hd__decap_3
XFILLER_28_105 VGND VGND VPWR VPWR sky130_fd_sc_hd__decap_12
XFILLER_35_94 VGND VGND VPWR VPWR sky130_fd_sc_hd__decap_12
XFILLER_27_171 VGND VGND VPWR VPWR sky130_fd_sc_hd__decap_12
XFILLER_19_62 VGND VGND VPWR VPWR sky130_fd_sc_hd__decap_12
XFILLER_19_51 VGND VGND VPWR VPWR sky130_fd_sc_hd__decap_8
XFILLER_33_196 VGND VGND VPWR VPWR sky130_fd_sc_hd__decap_12
XFILLER_18_3 VGND VGND VPWR VPWR sky130_fd_sc_hd__decap_12
XFILLER_24_141 VGND VGND VPWR VPWR sky130_fd_sc_hd__decap_12
XFILLER_21_74 VGND VGND VPWR VPWR sky130_fd_sc_hd__decap_12
XPHY_169 VGND VPWR sky130_fd_sc_hd__tapvpwrvgnd_1
XPHY_158 VGND VPWR sky130_fd_sc_hd__tapvpwrvgnd_1
XPHY_147 VGND VPWR sky130_fd_sc_hd__tapvpwrvgnd_1
XPHY_136 VGND VPWR sky130_fd_sc_hd__tapvpwrvgnd_1
XFILLER_0_218 VGND VGND VPWR VPWR sky130_fd_sc_hd__decap_12
XPHY_103 VGND VPWR sky130_fd_sc_hd__tapvpwrvgnd_1
XPHY_114 VGND VPWR sky130_fd_sc_hd__tapvpwrvgnd_1
XPHY_125 VGND VPWR sky130_fd_sc_hd__tapvpwrvgnd_1
XFILLER_30_166 VGND VGND VPWR VPWR sky130_fd_sc_hd__decap_12
XFILLER_15_196 VGND VGND VPWR VPWR sky130_fd_sc_hd__decap_12
XPHY_5 VGND VGND VPWR VPWR sky130_fd_sc_hd__decap_3
XFILLER_7_98 VGND VGND VPWR VPWR sky130_fd_sc_hd__decap_12
XFILLER_29_222 VGND VGND VPWR VPWR sky130_fd_sc_hd__decap_8
XFILLER_12_166 VGND VGND VPWR VPWR sky130_fd_sc_hd__decap_12
XFILLER_32_239 VGND VGND VPWR VPWR sky130_fd_sc_hd__decap_12
XFILLER_27_62 VGND VGND VPWR VPWR sky130_fd_sc_hd__decap_12
XFILLER_27_51 VGND VGND VPWR VPWR sky130_fd_sc_hd__decap_8
XFILLER_17_269 VGND VGND VPWR VPWR sky130_fd_sc_hd__decap_12
XFILLER_4_44 VGND VGND VPWR VPWR sky130_fd_sc_hd__decap_12
XFILLER_14_239 VGND VGND VPWR VPWR sky130_fd_sc_hd__decap_12
XFILLER_13_86 VGND VGND VPWR VPWR sky130_fd_sc_hd__decap_12
XFILLER_1_110 VGND VGND VPWR VPWR sky130_fd_sc_hd__decap_12
XFILLER_9_232 VGND VGND VPWR VPWR sky130_fd_sc_hd__decap_12
XFILLER_6_202 VGND VGND VPWR VPWR sky130_fd_sc_hd__decap_12
XFILLER_28_117 VGND VGND VPWR VPWR sky130_fd_sc_hd__decap_12
XFILLER_19_74 VGND VGND VPWR VPWR sky130_fd_sc_hd__decap_12
XFILLER_10_32 VGND VGND VPWR VPWR sky130_fd_sc_hd__decap_12
XPHY_159 VGND VPWR sky130_fd_sc_hd__tapvpwrvgnd_1
XPHY_148 VGND VPWR sky130_fd_sc_hd__tapvpwrvgnd_1
XPHY_137 VGND VPWR sky130_fd_sc_hd__tapvpwrvgnd_1
XPHY_104 VGND VPWR sky130_fd_sc_hd__tapvpwrvgnd_1
XPHY_115 VGND VPWR sky130_fd_sc_hd__tapvpwrvgnd_1
XPHY_126 VGND VPWR sky130_fd_sc_hd__tapvpwrvgnd_1
XFILLER_30_178 VGND VGND VPWR VPWR sky130_fd_sc_hd__decap_12
XFILLER_21_86 VGND VGND VPWR VPWR sky130_fd_sc_hd__decap_12
XPHY_6 VGND VGND VPWR VPWR sky130_fd_sc_hd__decap_3
XFILLER_30_3 VGND VGND VPWR VPWR sky130_fd_sc_hd__decap_12
XFILLER_21_123 VGND VGND VPWR VPWR sky130_fd_sc_hd__decap_12
XFILLER_29_245 VGND VGND VPWR VPWR sky130_fd_sc_hd__decap_12
XFILLER_29_234 VGND VGND VPWR VPWR sky130_fd_sc_hd__decap_8
XFILLER_12_178 VGND VGND VPWR VPWR sky130_fd_sc_hd__decap_12
XFILLER_8_105 VGND VGND VPWR VPWR sky130_fd_sc_hd__decap_12
XFILLER_7_171 VGND VGND VPWR VPWR sky130_fd_sc_hd__decap_12
XFILLER_26_215 VGND VGND VPWR VPWR sky130_fd_sc_hd__decap_12
XFILLER_27_74 VGND VGND VPWR VPWR sky130_fd_sc_hd__decap_12
XFILLER_25_281 VGND VGND VPWR VPWR sky130_fd_sc_hd__decap_12
XFILLER_4_56 VGND VGND VPWR VPWR sky130_fd_sc_hd__decap_12
XFILLER_4_141 VGND VGND VPWR VPWR sky130_fd_sc_hd__decap_12
XFILLER_22_251 VGND VGND VPWR VPWR sky130_fd_sc_hd__decap_12
XANTENNA__0__A top_width_0_height_0__pin_0_ VGND VGND VPWR VPWR sky130_fd_sc_hd__diode_2
XFILLER_13_98 VGND VGND VPWR VPWR sky130_fd_sc_hd__decap_12
XFILLER_8_3 VGND VGND VPWR VPWR sky130_fd_sc_hd__decap_12
Xlogical_tile_io_mode_io__0.logical_tile_io_mode_physical__iopad_0.GPIO_sky130_fd_sc_hd__dfxbp_1_mem.sky130_fd_sc_hd__dfxbp_1_0_
+ ccff_head ccff_tail logical_tile_io_mode_io__0.logical_tile_io_mode_physical__iopad_0.GPIO_sky130_fd_sc_hd__dfxbp_1_mem.sky130_fd_sc_hd__dfxbp_1_0_/Q_N
+ prog_clk VGND VGND VPWR VPWR sky130_fd_sc_hd__dfxbp_1
XFILLER_10_276 VGND VGND VPWR VPWR sky130_fd_sc_hd__decap_12
XFILLER_28_129 VGND VGND VPWR VPWR sky130_fd_sc_hd__decap_12
XFILLER_10_44 VGND VGND VPWR VPWR sky130_fd_sc_hd__decap_12
XFILLER_35_63 VGND VGND VPWR VPWR sky130_fd_sc_hd__decap_12
XFILLER_27_184 VGND VGND VPWR VPWR sky130_fd_sc_hd__decap_12
XFILLER_19_86 VGND VGND VPWR VPWR sky130_fd_sc_hd__decap_12
XFILLER_33_110 VGND VGND VPWR VPWR sky130_fd_sc_hd__decap_12
XPHY_105 VGND VPWR sky130_fd_sc_hd__tapvpwrvgnd_1
XPHY_116 VGND VPWR sky130_fd_sc_hd__tapvpwrvgnd_1
XFILLER_24_154 VGND VGND VPWR VPWR sky130_fd_sc_hd__decap_12
XFILLER_21_98 VGND VGND VPWR VPWR sky130_fd_sc_hd__decap_12
XPHY_149 VGND VPWR sky130_fd_sc_hd__tapvpwrvgnd_1
XPHY_138 VGND VPWR sky130_fd_sc_hd__tapvpwrvgnd_1
XPHY_127 VGND VPWR sky130_fd_sc_hd__tapvpwrvgnd_1
XPHY_7 VGND VGND VPWR VPWR sky130_fd_sc_hd__decap_3
XFILLER_23_3 VGND VGND VPWR VPWR sky130_fd_sc_hd__decap_12
XFILLER_21_135 VGND VGND VPWR VPWR sky130_fd_sc_hd__decap_12
XFILLER_29_257 VGND VGND VPWR VPWR sky130_fd_sc_hd__decap_12
XANTENNA__3__A gfpga_pad_GPIO_Y VGND VGND VPWR VPWR sky130_fd_sc_hd__diode_2
XFILLER_20_190 VGND VGND VPWR VPWR sky130_fd_sc_hd__decap_12
XFILLER_16_32 VGND VGND VPWR VPWR sky130_fd_sc_hd__decap_12
XFILLER_8_117 VGND VGND VPWR VPWR sky130_fd_sc_hd__decap_12
XFILLER_35_249 VGND VGND VPWR VPWR sky130_fd_sc_hd__decap_12
XFILLER_26_227 VGND VGND VPWR VPWR sky130_fd_sc_hd__decap_12
XFILLER_27_86 VGND VGND VPWR VPWR sky130_fd_sc_hd__decap_12
XFILLER_25_293 VGND VGND VPWR VPWR sky130_fd_sc_hd__decap_6
XFILLER_4_68 VGND VGND VPWR VPWR sky130_fd_sc_hd__decap_12
XFILLER_23_208 VGND VGND VPWR VPWR sky130_fd_sc_hd__decap_12
XFILLER_22_296 VGND VGND VPWR VPWR sky130_fd_sc_hd__decap_3
XFILLER_22_263 VGND VGND VPWR VPWR sky130_fd_sc_hd__decap_12
XFILLER_1_123 VGND VGND VPWR VPWR sky130_fd_sc_hd__decap_12
XFILLER_9_245 VGND VGND VPWR VPWR sky130_fd_sc_hd__decap_12
XFILLER_24_32 VGND VGND VPWR VPWR sky130_fd_sc_hd__decap_12
XFILLER_6_215 VGND VGND VPWR VPWR sky130_fd_sc_hd__decap_12
XFILLER_10_288 VGND VGND VPWR VPWR sky130_fd_sc_hd__decap_8
XFILLER_5_281 VGND VGND VPWR VPWR sky130_fd_sc_hd__decap_12
XFILLER_10_56 VGND VGND VPWR VPWR sky130_fd_sc_hd__decap_12
XFILLER_35_75 VGND VGND VPWR VPWR sky130_fd_sc_hd__decap_12
XFILLER_27_196 VGND VGND VPWR VPWR sky130_fd_sc_hd__decap_12
XFILLER_19_98 VGND VGND VPWR VPWR sky130_fd_sc_hd__decap_12
XFILLER_2_251 VGND VGND VPWR VPWR sky130_fd_sc_hd__decap_12
XFILLER_18_141 VGND VGND VPWR VPWR sky130_fd_sc_hd__decap_12
XFILLER_24_166 VGND VGND VPWR VPWR sky130_fd_sc_hd__decap_12
XPHY_139 VGND VPWR sky130_fd_sc_hd__tapvpwrvgnd_1
XPHY_128 VGND VPWR sky130_fd_sc_hd__tapvpwrvgnd_1
XPHY_106 VGND VPWR sky130_fd_sc_hd__tapvpwrvgnd_1
XPHY_117 VGND VPWR sky130_fd_sc_hd__tapvpwrvgnd_1
XFILLER_16_3 VGND VGND VPWR VPWR sky130_fd_sc_hd__decap_12
XPHY_8 VGND VGND VPWR VPWR sky130_fd_sc_hd__decap_3
XFILLER_29_269 VGND VGND VPWR VPWR sky130_fd_sc_hd__decap_12
XFILLER_21_147 VGND VGND VPWR VPWR sky130_fd_sc_hd__decap_12
XFILLER_16_44 VGND VGND VPWR VPWR sky130_fd_sc_hd__decap_12
XFILLER_32_32 VGND VGND VPWR VPWR sky130_fd_sc_hd__decap_12
XFILLER_8_129 VGND VGND VPWR VPWR sky130_fd_sc_hd__decap_12
XFILLER_26_239 VGND VGND VPWR VPWR sky130_fd_sc_hd__decap_12
XFILLER_7_184 VGND VGND VPWR VPWR sky130_fd_sc_hd__decap_12