* NGSPICE file created from grid_io_left.ext - technology: EFS8A

* Black-box entry subcircuit for scs8hd_decap_12 abstract view
.subckt scs8hd_decap_12 vgnd vpwr
.ends

* Black-box entry subcircuit for scs8hd_fill_1 abstract view
.subckt scs8hd_fill_1 vgnd vpwr
.ends

* Black-box entry subcircuit for scs8hd_tapvpwrvgnd_1 abstract view
.subckt scs8hd_tapvpwrvgnd_1 vgnd vpwr
.ends

* Black-box entry subcircuit for scs8hd_fill_2 abstract view
.subckt scs8hd_fill_2 vpwr vgnd
.ends

* Black-box entry subcircuit for scs8hd_decap_6 abstract view
.subckt scs8hd_decap_6 vgnd vpwr
.ends

* Black-box entry subcircuit for scs8hd_decap_8 abstract view
.subckt scs8hd_decap_8 vgnd vpwr
.ends

* Black-box entry subcircuit for scs8hd_decap_3 abstract view
.subckt scs8hd_decap_3 vgnd vpwr
.ends

* Black-box entry subcircuit for scs8hd_decap_4 abstract view
.subckt scs8hd_decap_4 vgnd vpwr
.ends

* Black-box entry subcircuit for scs8hd_diode_2 abstract view
.subckt scs8hd_diode_2 DIODE vgnd vpwr
.ends

* Black-box entry subcircuit for scs8hd_ebufn_1 abstract view
.subckt scs8hd_ebufn_1 A TEB Z vgnd vpwr
.ends

* Black-box entry subcircuit for scs8hd_lpflow_inputisolatch_1 abstract view
.subckt scs8hd_lpflow_inputisolatch_1 D Q SLEEPB vgnd vpwr
.ends

* Black-box entry subcircuit for scs8hd_and4_4 abstract view
.subckt scs8hd_and4_4 A B C D X vgnd vpwr
.ends

* Black-box entry subcircuit for scs8hd_inv_8 abstract view
.subckt scs8hd_inv_8 A Y vgnd vpwr
.ends

* Black-box entry subcircuit for scs8hd_buf_2 abstract view
.subckt scs8hd_buf_2 A X vgnd vpwr
.ends

* Black-box entry subcircuit for scs8hd_buf_1 abstract view
.subckt scs8hd_buf_1 A X vgnd vpwr
.ends

* Black-box entry subcircuit for scs8hd_nor4_4 abstract view
.subckt scs8hd_nor4_4 A B C D Y vgnd vpwr
.ends

.subckt grid_io_left address[0] address[1] address[2] address[3] data_in enable gfpga_pad_GPIO_PAD[0]
+ gfpga_pad_GPIO_PAD[1] gfpga_pad_GPIO_PAD[2] gfpga_pad_GPIO_PAD[3] gfpga_pad_GPIO_PAD[4]
+ gfpga_pad_GPIO_PAD[5] gfpga_pad_GPIO_PAD[6] gfpga_pad_GPIO_PAD[7] right_width_0_height_0__pin_0_
+ right_width_0_height_0__pin_10_ right_width_0_height_0__pin_11_ right_width_0_height_0__pin_12_
+ right_width_0_height_0__pin_13_ right_width_0_height_0__pin_14_ right_width_0_height_0__pin_15_
+ right_width_0_height_0__pin_1_ right_width_0_height_0__pin_2_ right_width_0_height_0__pin_3_
+ right_width_0_height_0__pin_4_ right_width_0_height_0__pin_5_ right_width_0_height_0__pin_6_
+ right_width_0_height_0__pin_7_ right_width_0_height_0__pin_8_ right_width_0_height_0__pin_9_
+ vpwr vgnd
XFILLER_596_56 vgnd vpwr scs8hd_decap_12
XFILLER_379_80 vgnd vpwr scs8hd_fill_1
XFILLER_449_39 vgnd vpwr scs8hd_decap_12
XPHY_1707 vgnd vpwr scs8hd_tapvpwrvgnd_1
XPHY_1718 vgnd vpwr scs8hd_tapvpwrvgnd_1
XPHY_1729 vgnd vpwr scs8hd_tapvpwrvgnd_1
XFILLER_465_27 vgnd vpwr scs8hd_decap_12
XFILLER_481_15 vgnd vpwr scs8hd_decap_12
XFILLER_77_15 vgnd vpwr scs8hd_decap_12
XFILLER_481_59 vpwr vgnd scs8hd_fill_2
XFILLER_77_59 vpwr vgnd scs8hd_fill_2
XFILLER_172_3 vgnd vpwr scs8hd_decap_12
XFILLER_289_80 vgnd vpwr scs8hd_fill_1
XFILLER_359_39 vgnd vpwr scs8hd_decap_12
XFILLER_437_3 vgnd vpwr scs8hd_decap_12
XFILLER_375_27 vgnd vpwr scs8hd_decap_12
XFILLER_308_32 vgnd vpwr scs8hd_decap_12
XFILLER_391_15 vgnd vpwr scs8hd_decap_12
XFILLER_391_59 vpwr vgnd scs8hd_fill_2
XFILLER_83_80 vgnd vpwr scs8hd_fill_1
XFILLER_199_80 vgnd vpwr scs8hd_fill_1
XFILLER_269_39 vgnd vpwr scs8hd_decap_12
XFILLER_566_15 vgnd vpwr scs8hd_decap_12
XFILLER_285_27 vgnd vpwr scs8hd_decap_12
XFILLER_218_32 vgnd vpwr scs8hd_decap_12
XFILLER_515_74 vgnd vpwr scs8hd_decap_6
XFILLER_531_62 vgnd vpwr scs8hd_decap_12
XFILLER_531_51 vgnd vpwr scs8hd_decap_8
XFILLER_63_39 vgnd vpwr scs8hd_decap_12
XFILLER_179_39 vgnd vpwr scs8hd_decap_12
XFILLER_400_44 vgnd vpwr scs8hd_decap_12
XPHY_905 vgnd vpwr scs8hd_decap_3
XPHY_916 vgnd vpwr scs8hd_decap_3
XPHY_927 vgnd vpwr scs8hd_decap_3
XPHY_1504 vgnd vpwr scs8hd_tapvpwrvgnd_1
XPHY_1515 vgnd vpwr scs8hd_tapvpwrvgnd_1
XPHY_938 vgnd vpwr scs8hd_decap_3
XPHY_949 vgnd vpwr scs8hd_decap_3
XPHY_1526 vgnd vpwr scs8hd_tapvpwrvgnd_1
XPHY_1537 vgnd vpwr scs8hd_tapvpwrvgnd_1
XPHY_1548 vgnd vpwr scs8hd_tapvpwrvgnd_1
XFILLER_476_15 vgnd vpwr scs8hd_decap_12
XFILLER_195_27 vpwr vgnd scs8hd_fill_2
XPHY_1559 vgnd vpwr scs8hd_tapvpwrvgnd_1
XFILLER_12_32 vgnd vpwr scs8hd_decap_12
XFILLER_128_32 vgnd vpwr scs8hd_decap_12
XFILLER_572_80 vgnd vpwr scs8hd_fill_1
XFILLER_425_74 vgnd vpwr scs8hd_decap_6
XFILLER_387_3 vgnd vpwr scs8hd_decap_12
XFILLER_37_51 vgnd vpwr scs8hd_decap_8
XFILLER_441_51 vgnd vpwr scs8hd_decap_8
XFILLER_441_62 vgnd vpwr scs8hd_decap_12
XFILLER_554_3 vgnd vpwr scs8hd_decap_12
XFILLER_37_62 vgnd vpwr scs8hd_decap_12
XFILLER_310_44 vgnd vpwr scs8hd_decap_12
XFILLER_386_15 vgnd vpwr scs8hd_decap_12
XFILLER_335_74 vgnd vpwr scs8hd_decap_6
XFILLER_482_80 vgnd vpwr scs8hd_fill_1
XFILLER_78_80 vgnd vpwr scs8hd_fill_1
XFILLER_204_56 vgnd vpwr scs8hd_decap_12
XFILLER_351_51 vgnd vpwr scs8hd_decap_8
XFILLER_351_62 vgnd vpwr scs8hd_decap_12
XFILLER_220_22 vgnd vpwr scs8hd_decap_8
XFILLER_220_44 vgnd vpwr scs8hd_decap_12
XFILLER_296_15 vgnd vpwr scs8hd_decap_12
XFILLER_245_74 vgnd vpwr scs8hd_decap_6
XFILLER_392_80 vgnd vpwr scs8hd_fill_1
XFILLER_114_56 vgnd vpwr scs8hd_decap_12
XFILLER_261_51 vgnd vpwr scs8hd_decap_8
XFILLER_261_62 vgnd vpwr scs8hd_decap_12
XFILLER_74_27 vgnd vpwr scs8hd_decap_4
XFILLER_130_44 vgnd vpwr scs8hd_decap_12
XPHY_702 vgnd vpwr scs8hd_decap_3
XFILLER_90_15 vgnd vpwr scs8hd_decap_12
XPHY_713 vgnd vpwr scs8hd_decap_3
XPHY_724 vgnd vpwr scs8hd_decap_3
XPHY_735 vgnd vpwr scs8hd_decap_3
XPHY_1323 vgnd vpwr scs8hd_tapvpwrvgnd_1
XPHY_1312 vgnd vpwr scs8hd_tapvpwrvgnd_1
XPHY_1301 vgnd vpwr scs8hd_tapvpwrvgnd_1
XPHY_746 vgnd vpwr scs8hd_decap_3
XPHY_757 vgnd vpwr scs8hd_decap_3
XPHY_768 vgnd vpwr scs8hd_decap_3
XFILLER_567_80 vgnd vpwr scs8hd_fill_1
XPHY_1334 vgnd vpwr scs8hd_tapvpwrvgnd_1
XFILLER_135_3 vgnd vpwr scs8hd_decap_12
XPHY_1345 vgnd vpwr scs8hd_tapvpwrvgnd_1
XPHY_1356 vgnd vpwr scs8hd_tapvpwrvgnd_1
XPHY_779 vgnd vpwr scs8hd_decap_3
XPHY_1367 vgnd vpwr scs8hd_tapvpwrvgnd_1
XPHY_1378 vgnd vpwr scs8hd_tapvpwrvgnd_1
XPHY_1389 vgnd vpwr scs8hd_tapvpwrvgnd_1
XFILLER_302_3 vgnd vpwr scs8hd_decap_12
XFILLER_155_74 vgnd vpwr scs8hd_decap_6
XFILLER_171_51 vgnd vpwr scs8hd_decap_8
XFILLER_171_62 vgnd vpwr scs8hd_decap_12
XFILLER_0_79 vpwr vgnd scs8hd_fill_2
XFILLER_547_39 vgnd vpwr scs8hd_decap_12
XFILLER_477_80 vgnd vpwr scs8hd_fill_1
XFILLER_563_27 vgnd vpwr scs8hd_decap_12
XFILLER_50_3 vgnd vpwr scs8hd_decap_12
XFILLER_588_68 vgnd vpwr scs8hd_decap_12
XFILLER_387_80 vgnd vpwr scs8hd_fill_1
XFILLER_457_39 vgnd vpwr scs8hd_decap_12
XFILLER_473_27 vgnd vpwr scs8hd_decap_12
XFILLER_69_27 vgnd vpwr scs8hd_decap_12
XFILLER_406_32 vgnd vpwr scs8hd_decap_12
XFILLER_85_15 vgnd vpwr scs8hd_decap_12
XFILLER_85_59 vpwr vgnd scs8hd_fill_2
XFILLER_252_3 vgnd vpwr scs8hd_decap_12
XPHY_510 vgnd vpwr scs8hd_decap_3
XFILLER_498_68 vgnd vpwr scs8hd_decap_12
XPHY_521 vgnd vpwr scs8hd_decap_3
XPHY_532 vgnd vpwr scs8hd_decap_3
XPHY_543 vgnd vpwr scs8hd_decap_3
XPHY_1131 vgnd vpwr scs8hd_decap_3
XPHY_1120 vgnd vpwr scs8hd_decap_3
XPHY_554 vgnd vpwr scs8hd_decap_3
XPHY_565 vgnd vpwr scs8hd_decap_3
XPHY_576 vgnd vpwr scs8hd_decap_3
XPHY_587 vgnd vpwr scs8hd_decap_3
XFILLER_367_39 vgnd vpwr scs8hd_decap_8
XFILLER_517_3 vgnd vpwr scs8hd_decap_12
XPHY_1175 vgnd vpwr scs8hd_decap_3
XPHY_1164 vgnd vpwr scs8hd_decap_3
XPHY_1153 vgnd vpwr scs8hd_decap_3
XPHY_1142 vgnd vpwr scs8hd_decap_3
XFILLER_297_80 vgnd vpwr scs8hd_fill_1
XPHY_598 vgnd vpwr scs8hd_decap_3
XPHY_1197 vgnd vpwr scs8hd_decap_3
XPHY_1186 vgnd vpwr scs8hd_decap_3
XFILLER_166_73 vgnd vpwr scs8hd_decap_8
XFILLER_383_27 vgnd vpwr scs8hd_decap_12
XFILLER_316_32 vgnd vpwr scs8hd_decap_12
XFILLER_201_35 vgnd vpwr scs8hd_decap_12
XFILLER_558_27 vgnd vpwr scs8hd_decap_4
XFILLER_98_3 vgnd vpwr scs8hd_decap_12
XFILLER_91_80 vgnd vpwr scs8hd_fill_1
XFILLER_277_39 vgnd vpwr scs8hd_decap_12
XFILLER_574_15 vgnd vpwr scs8hd_decap_12
XFILLER_293_27 vgnd vpwr scs8hd_decap_12
XFILLER_226_32 vgnd vpwr scs8hd_decap_12
XFILLER_523_74 vgnd vpwr scs8hd_decap_6
XFILLER_468_27 vgnd vpwr scs8hd_decap_4
XFILLER_71_39 vgnd vpwr scs8hd_decap_12
XFILLER_187_39 vgnd vpwr scs8hd_decap_12
XFILLER_484_15 vgnd vpwr scs8hd_decap_12
XFILLER_20_32 vgnd vpwr scs8hd_decap_12
XFILLER_136_32 vgnd vpwr scs8hd_decap_12
XFILLER_580_80 vgnd vpwr scs8hd_fill_1
XFILLER_433_74 vgnd vpwr scs8hd_decap_6
XFILLER_29_74 vgnd vpwr scs8hd_decap_6
XFILLER_467_3 vgnd vpwr scs8hd_decap_12
XFILLER_302_56 vgnd vpwr scs8hd_decap_12
XFILLER_45_62 vgnd vpwr scs8hd_decap_12
XFILLER_45_51 vgnd vpwr scs8hd_decap_8
XFILLER_378_27 vgnd vpwr scs8hd_decap_4
XPHY_340 vgnd vpwr scs8hd_decap_3
XPHY_351 vgnd vpwr scs8hd_decap_3
XPHY_362 vgnd vpwr scs8hd_decap_3
XPHY_373 vgnd vpwr scs8hd_decap_3
XPHY_384 vgnd vpwr scs8hd_decap_3
XPHY_395 vgnd vpwr scs8hd_decap_3
XFILLER_394_15 vgnd vpwr scs8hd_decap_12
XFILLER_6_56 vgnd vpwr scs8hd_decap_12
XFILLER_343_74 vgnd vpwr scs8hd_decap_6
XFILLER_490_80 vgnd vpwr scs8hd_fill_1
XFILLER_86_80 vgnd vpwr scs8hd_fill_1
XFILLER_13_3 vgnd vpwr scs8hd_decap_12
XFILLER_212_12 vpwr vgnd scs8hd_fill_2
XFILLER_569_15 vgnd vpwr scs8hd_decap_12
XFILLER_569_59 vpwr vgnd scs8hd_fill_2
XFILLER_288_27 vgnd vpwr scs8hd_decap_4
XFILLER_106_68 vgnd vpwr scs8hd_decap_12
XFILLER_253_74 vgnd vpwr scs8hd_decap_6
XFILLER_122_56 vgnd vpwr scs8hd_decap_12
XFILLER_479_15 vgnd vpwr scs8hd_decap_12
XFILLER_82_27 vgnd vpwr scs8hd_decap_4
XFILLER_479_59 vpwr vgnd scs8hd_fill_2
XFILLER_198_27 vgnd vpwr scs8hd_decap_4
XFILLER_215_3 vgnd vpwr scs8hd_decap_12
XFILLER_575_80 vgnd vpwr scs8hd_fill_1
XFILLER_584_3 vgnd vpwr scs8hd_decap_12
XFILLER_163_74 vgnd vpwr scs8hd_decap_6
XFILLER_389_15 vgnd vpwr scs8hd_decap_12
XFILLER_389_59 vpwr vgnd scs8hd_fill_2
XPHY_170 vgnd vpwr scs8hd_decap_3
XPHY_192 vgnd vpwr scs8hd_decap_3
XPHY_181 vgnd vpwr scs8hd_decap_3
XFILLER_555_39 vgnd vpwr scs8hd_decap_12
XFILLER_485_80 vgnd vpwr scs8hd_fill_1
XFILLER_571_27 vgnd vpwr scs8hd_decap_12
XFILLER_504_32 vgnd vpwr scs8hd_decap_12
XFILLER_299_15 vgnd vpwr scs8hd_decap_12
XFILLER_299_59 vpwr vgnd scs8hd_fill_2
XFILLER_596_68 vgnd vpwr scs8hd_decap_12
XPHY_1708 vgnd vpwr scs8hd_tapvpwrvgnd_1
XPHY_1719 vgnd vpwr scs8hd_tapvpwrvgnd_1
XFILLER_529_62 vgnd vpwr scs8hd_decap_12
XFILLER_529_51 vgnd vpwr scs8hd_decap_8
XFILLER_395_80 vgnd vpwr scs8hd_fill_1
XFILLER_465_39 vgnd vpwr scs8hd_decap_12
XFILLER_77_27 vgnd vpwr scs8hd_decap_12
XFILLER_481_27 vgnd vpwr scs8hd_decap_12
XFILLER_414_32 vgnd vpwr scs8hd_decap_12
XFILLER_93_15 vgnd vpwr scs8hd_decap_12
XFILLER_93_59 vpwr vgnd scs8hd_fill_2
XFILLER_165_3 vgnd vpwr scs8hd_decap_12
XFILLER_332_3 vgnd vpwr scs8hd_decap_12
XFILLER_439_51 vgnd vpwr scs8hd_decap_8
XFILLER_439_62 vgnd vpwr scs8hd_decap_12
XFILLER_375_39 vgnd vpwr scs8hd_decap_12
XFILLER_308_44 vgnd vpwr scs8hd_decap_12
XFILLER_391_27 vgnd vpwr scs8hd_decap_12
XFILLER_324_32 vgnd vpwr scs8hd_decap_12
XFILLER_566_27 vgnd vpwr scs8hd_decap_4
XFILLER_80_3 vgnd vpwr scs8hd_decap_12
XFILLER_349_51 vgnd vpwr scs8hd_decap_8
XFILLER_349_62 vgnd vpwr scs8hd_decap_12
XFILLER_285_39 vgnd vpwr scs8hd_decap_12
XFILLER_582_15 vgnd vpwr scs8hd_decap_12
XFILLER_218_44 vgnd vpwr scs8hd_decap_12
XFILLER_234_32 vgnd vpwr scs8hd_decap_12
XFILLER_531_74 vgnd vpwr scs8hd_decap_6
XFILLER_400_56 vgnd vpwr scs8hd_decap_12
XPHY_906 vgnd vpwr scs8hd_decap_3
XPHY_917 vgnd vpwr scs8hd_decap_3
XPHY_1505 vgnd vpwr scs8hd_tapvpwrvgnd_1
XPHY_928 vgnd vpwr scs8hd_decap_3
XPHY_939 vgnd vpwr scs8hd_decap_3
XFILLER_259_51 vgnd vpwr scs8hd_decap_8
XFILLER_259_62 vgnd vpwr scs8hd_decap_12
XPHY_1516 vgnd vpwr scs8hd_tapvpwrvgnd_1
XPHY_1527 vgnd vpwr scs8hd_tapvpwrvgnd_1
XPHY_1538 vgnd vpwr scs8hd_tapvpwrvgnd_1
XPHY_1549 vgnd vpwr scs8hd_tapvpwrvgnd_1
XFILLER_476_27 vgnd vpwr scs8hd_decap_4
XFILLER_12_44 vgnd vpwr scs8hd_decap_12
XFILLER_128_44 vgnd vpwr scs8hd_decap_12
XFILLER_492_15 vgnd vpwr scs8hd_decap_12
XFILLER_88_15 vgnd vpwr scs8hd_decap_12
XFILLER_144_32 vgnd vpwr scs8hd_decap_12
XFILLER_282_3 vgnd vpwr scs8hd_decap_12
XFILLER_37_74 vgnd vpwr scs8hd_decap_6
XFILLER_441_74 vgnd vpwr scs8hd_decap_6
XFILLER_547_3 vgnd vpwr scs8hd_decap_12
XFILLER_53_62 vgnd vpwr scs8hd_decap_12
XFILLER_53_51 vgnd vpwr scs8hd_decap_8
XFILLER_310_56 vgnd vpwr scs8hd_decap_12
XFILLER_169_51 vgnd vpwr scs8hd_decap_8
XFILLER_169_62 vgnd vpwr scs8hd_decap_12
XFILLER_386_27 vgnd vpwr scs8hd_decap_4
XFILLER_204_24 vgnd vpwr scs8hd_decap_6
XFILLER_204_68 vgnd vpwr scs8hd_decap_12
XFILLER_94_80 vgnd vpwr scs8hd_fill_1
XFILLER_351_74 vgnd vpwr scs8hd_decap_6
XFILLER_577_15 vgnd vpwr scs8hd_decap_12
XFILLER_220_56 vgnd vpwr scs8hd_decap_12
XFILLER_296_27 vgnd vpwr scs8hd_decap_4
XFILLER_114_68 vgnd vpwr scs8hd_decap_12
XFILLER_261_74 vgnd vpwr scs8hd_decap_6
XFILLER_487_15 vgnd vpwr scs8hd_decap_12
XFILLER_130_56 vgnd vpwr scs8hd_decap_12
XFILLER_90_27 vgnd vpwr scs8hd_decap_4
XPHY_703 vgnd vpwr scs8hd_decap_3
XPHY_714 vgnd vpwr scs8hd_decap_3
XPHY_725 vgnd vpwr scs8hd_decap_3
XPHY_736 vgnd vpwr scs8hd_decap_3
XPHY_1324 vgnd vpwr scs8hd_tapvpwrvgnd_1
XPHY_1313 vgnd vpwr scs8hd_tapvpwrvgnd_1
XPHY_1302 vgnd vpwr scs8hd_tapvpwrvgnd_1
XPHY_747 vgnd vpwr scs8hd_decap_3
XPHY_758 vgnd vpwr scs8hd_decap_3
XPHY_769 vgnd vpwr scs8hd_decap_3
XFILLER_487_59 vpwr vgnd scs8hd_fill_2
XPHY_1335 vgnd vpwr scs8hd_tapvpwrvgnd_1
XPHY_1346 vgnd vpwr scs8hd_tapvpwrvgnd_1
XPHY_1357 vgnd vpwr scs8hd_tapvpwrvgnd_1
XFILLER_128_3 vgnd vpwr scs8hd_decap_12
XPHY_1368 vgnd vpwr scs8hd_tapvpwrvgnd_1
XPHY_1379 vgnd vpwr scs8hd_tapvpwrvgnd_1
XFILLER_583_80 vgnd vpwr scs8hd_fill_1
XFILLER_497_3 vgnd vpwr scs8hd_decap_12
XFILLER_602_32 vgnd vpwr scs8hd_decap_12
XFILLER_171_74 vgnd vpwr scs8hd_decap_6
XFILLER_0_47 vgnd vpwr scs8hd_decap_12
XFILLER_0_36 vgnd vpwr scs8hd_fill_1
XFILLER_397_15 vgnd vpwr scs8hd_decap_12
XFILLER_397_59 vpwr vgnd scs8hd_fill_2
XFILLER_563_39 vgnd vpwr scs8hd_decap_12
XFILLER_493_80 vgnd vpwr scs8hd_fill_1
XFILLER_89_80 vgnd vpwr scs8hd_fill_1
XFILLER_43_3 vgnd vpwr scs8hd_decap_12
XFILLER_512_32 vgnd vpwr scs8hd_decap_12
XFILLER_100_15 vgnd vpwr scs8hd_decap_12
XFILLER_537_62 vgnd vpwr scs8hd_decap_12
XFILLER_537_51 vgnd vpwr scs8hd_decap_8
XFILLER_69_39 vgnd vpwr scs8hd_decap_12
XFILLER_473_39 vgnd vpwr scs8hd_decap_12
XFILLER_406_44 vgnd vpwr scs8hd_decap_12
XFILLER_85_27 vgnd vpwr scs8hd_decap_12
XANTENNA_logical_tile_io_mode_io__4.logical_tile_io_mode_physical__iopad_0.GPIO_LATCH_mem.LATCH_0_.latch_SLEEPB
+ _10_/X vgnd vpwr scs8hd_diode_2
XFILLER_422_32 vgnd vpwr scs8hd_decap_12
XFILLER_18_32 vgnd vpwr scs8hd_decap_12
XPHY_500 vgnd vpwr scs8hd_decap_3
XFILLER_578_80 vgnd vpwr scs8hd_fill_1
XFILLER_245_3 vgnd vpwr scs8hd_decap_12
XPHY_511 vgnd vpwr scs8hd_decap_3
XPHY_522 vgnd vpwr scs8hd_decap_3
XPHY_533 vgnd vpwr scs8hd_decap_3
XPHY_544 vgnd vpwr scs8hd_decap_3
XPHY_1132 vgnd vpwr scs8hd_decap_3
XPHY_1121 vgnd vpwr scs8hd_decap_3
XPHY_1110 vgnd vpwr scs8hd_decap_3
XPHY_555 vgnd vpwr scs8hd_decap_3
XPHY_566 vgnd vpwr scs8hd_decap_3
XPHY_577 vgnd vpwr scs8hd_decap_3
XPHY_1165 vgnd vpwr scs8hd_decap_3
XPHY_1154 vgnd vpwr scs8hd_decap_3
XPHY_1143 vgnd vpwr scs8hd_decap_3
XPHY_588 vgnd vpwr scs8hd_decap_3
XPHY_599 vgnd vpwr scs8hd_decap_3
XFILLER_412_3 vgnd vpwr scs8hd_decap_12
XPHY_1198 vgnd vpwr scs8hd_decap_3
XPHY_1187 vgnd vpwr scs8hd_decap_3
XPHY_1176 vgnd vpwr scs8hd_decap_3
XFILLER_447_51 vgnd vpwr scs8hd_decap_8
XFILLER_447_62 vgnd vpwr scs8hd_decap_12
XFILLER_383_39 vgnd vpwr scs8hd_decap_12
XFILLER_316_44 vgnd vpwr scs8hd_decap_12
XFILLER_332_32 vgnd vpwr scs8hd_decap_12
XFILLER_201_47 vgnd vpwr scs8hd_decap_12
XFILLER_488_80 vgnd vpwr scs8hd_fill_1
XFILLER_574_27 vgnd vpwr scs8hd_decap_4
XFILLER_357_51 vgnd vpwr scs8hd_decap_8
XFILLER_357_62 vgnd vpwr scs8hd_decap_12
XFILLER_226_11 vgnd vpwr scs8hd_decap_3
XFILLER_293_39 vgnd vpwr scs8hd_decap_12
XFILLER_590_15 vgnd vpwr scs8hd_decap_12
XFILLER_226_22 vgnd vpwr scs8hd_decap_8
XFILLER_226_44 vgnd vpwr scs8hd_decap_12
XFILLER_242_32 vgnd vpwr scs8hd_decap_12
XFILLER_398_80 vgnd vpwr scs8hd_fill_1
XFILLER_267_51 vgnd vpwr scs8hd_decap_8
XFILLER_267_62 vgnd vpwr scs8hd_decap_12
XFILLER_484_27 vgnd vpwr scs8hd_decap_4
XFILLER_217_7 vgnd vpwr scs8hd_decap_4
XFILLER_20_44 vgnd vpwr scs8hd_decap_12
XFILLER_136_44 vgnd vpwr scs8hd_decap_12
XFILLER_96_15 vgnd vpwr scs8hd_decap_12
XFILLER_195_3 vgnd vpwr scs8hd_decap_4
XFILLER_152_32 vgnd vpwr scs8hd_decap_12
XFILLER_362_3 vgnd vpwr scs8hd_decap_12
XFILLER_45_74 vgnd vpwr scs8hd_decap_6
XFILLER_302_68 vgnd vpwr scs8hd_decap_12
XPHY_330 vgnd vpwr scs8hd_decap_3
XPHY_341 vgnd vpwr scs8hd_decap_3
XPHY_352 vgnd vpwr scs8hd_decap_3
XFILLER_101_80 vgnd vpwr scs8hd_fill_1
XFILLER_61_51 vgnd vpwr scs8hd_decap_8
XPHY_363 vgnd vpwr scs8hd_decap_3
XPHY_374 vgnd vpwr scs8hd_decap_3
XPHY_385 vgnd vpwr scs8hd_decap_3
XFILLER_61_62 vgnd vpwr scs8hd_decap_12
XFILLER_177_51 vgnd vpwr scs8hd_decap_8
XPHY_396 vgnd vpwr scs8hd_decap_3
XFILLER_394_27 vgnd vpwr scs8hd_decap_4
XFILLER_177_62 vgnd vpwr scs8hd_decap_12
XFILLER_6_68 vgnd vpwr scs8hd_decap_12
XFILLER_212_24 vgnd vpwr scs8hd_decap_3
XFILLER_212_57 vgnd vpwr scs8hd_decap_12
XFILLER_569_27 vgnd vpwr scs8hd_decap_12
XFILLER_585_15 vgnd vpwr scs8hd_decap_12
XFILLER_585_59 vpwr vgnd scs8hd_fill_2
XFILLER_122_68 vgnd vpwr scs8hd_decap_12
XFILLER_479_27 vgnd vpwr scs8hd_decap_12
XFILLER_495_15 vgnd vpwr scs8hd_decap_12
XFILLER_495_59 vpwr vgnd scs8hd_fill_2
XFILLER_110_3 vgnd vpwr scs8hd_decap_12
XFILLER_591_80 vgnd vpwr scs8hd_fill_1
XFILLER_577_3 vgnd vpwr scs8hd_decap_12
XFILLER_389_27 vgnd vpwr scs8hd_decap_12
XPHY_160 vgnd vpwr scs8hd_decap_3
XPHY_193 vgnd vpwr scs8hd_decap_3
XPHY_182 vgnd vpwr scs8hd_decap_3
XPHY_171 vgnd vpwr scs8hd_decap_3
XFILLER_207_35 vgnd vpwr scs8hd_decap_12
XFILLER_571_39 vgnd vpwr scs8hd_decap_12
XFILLER_97_80 vgnd vpwr scs8hd_fill_1
XFILLER_504_44 vgnd vpwr scs8hd_decap_12
XFILLER_299_27 vgnd vpwr scs8hd_decap_12
XFILLER_520_32 vgnd vpwr scs8hd_decap_12
XPHY_1709 vgnd vpwr scs8hd_tapvpwrvgnd_1
XFILLER_529_74 vgnd vpwr scs8hd_decap_6
XFILLER_545_51 vgnd vpwr scs8hd_decap_8
XFILLER_184_19 vgnd vpwr scs8hd_fill_1
XFILLER_545_62 vgnd vpwr scs8hd_decap_12
XFILLER_481_39 vgnd vpwr scs8hd_decap_12
XFILLER_77_39 vgnd vpwr scs8hd_decap_12
XFILLER_414_44 vgnd vpwr scs8hd_decap_12
XFILLER_93_27 vgnd vpwr scs8hd_decap_12
XFILLER_26_32 vgnd vpwr scs8hd_decap_12
XFILLER_430_32 vgnd vpwr scs8hd_decap_12
XFILLER_158_3 vgnd vpwr scs8hd_decap_12
XFILLER_325_3 vgnd vpwr scs8hd_decap_12
XFILLER_439_74 vgnd vpwr scs8hd_decap_6
XFILLER_586_80 vgnd vpwr scs8hd_fill_1
XFILLER_308_56 vgnd vpwr scs8hd_decap_12
XFILLER_455_51 vgnd vpwr scs8hd_decap_8
XFILLER_455_62 vgnd vpwr scs8hd_decap_12
XFILLER_391_39 vgnd vpwr scs8hd_decap_12
XFILLER_324_44 vgnd vpwr scs8hd_decap_12
XFILLER_340_32 vgnd vpwr scs8hd_decap_12
XFILLER_349_74 vgnd vpwr scs8hd_decap_6
XFILLER_496_80 vgnd vpwr scs8hd_fill_1
XFILLER_73_3 vgnd vpwr scs8hd_decap_12
XFILLER_365_51 vgnd vpwr scs8hd_decap_8
XFILLER_582_27 vgnd vpwr scs8hd_decap_4
XFILLER_218_56 vgnd vpwr scs8hd_decap_12
XFILLER_365_62 vgnd vpwr scs8hd_decap_12
XFILLER_234_44 vgnd vpwr scs8hd_decap_12
XFILLER_103_15 vgnd vpwr scs8hd_decap_12
XFILLER_250_32 vgnd vpwr scs8hd_decap_12
XFILLER_103_59 vpwr vgnd scs8hd_fill_2
XPHY_907 vgnd vpwr scs8hd_decap_3
XPHY_918 vgnd vpwr scs8hd_decap_3
XPHY_1506 vgnd vpwr scs8hd_tapvpwrvgnd_1
XFILLER_400_68 vgnd vpwr scs8hd_decap_12
XPHY_929 vgnd vpwr scs8hd_decap_3
XPHY_1517 vgnd vpwr scs8hd_tapvpwrvgnd_1
XPHY_1528 vgnd vpwr scs8hd_tapvpwrvgnd_1
XPHY_1539 vgnd vpwr scs8hd_tapvpwrvgnd_1
XFILLER_259_74 vgnd vpwr scs8hd_decap_6
XFILLER_12_56 vgnd vpwr scs8hd_decap_12
XFILLER_275_51 vgnd vpwr scs8hd_decap_8
XFILLER_128_56 vgnd vpwr scs8hd_decap_12
XFILLER_88_27 vgnd vpwr scs8hd_decap_4
XFILLER_275_62 vgnd vpwr scs8hd_decap_12
XFILLER_492_27 vgnd vpwr scs8hd_decap_4
XFILLER_144_44 vgnd vpwr scs8hd_decap_12
XFILLER_160_32 vgnd vpwr scs8hd_decap_12
XFILLER_275_3 vgnd vpwr scs8hd_decap_12
XFILLER_442_3 vgnd vpwr scs8hd_decap_12
XFILLER_310_68 vgnd vpwr scs8hd_decap_12
XFILLER_53_74 vgnd vpwr scs8hd_decap_6
XFILLER_169_74 vgnd vpwr scs8hd_decap_6
XFILLER_185_62 vgnd vpwr scs8hd_decap_12
XFILLER_577_27 vgnd vpwr scs8hd_decap_8
XFILLER_220_68 vgnd vpwr scs8hd_decap_12
XFILLER_593_15 vgnd vpwr scs8hd_decap_12
XFILLER_593_59 vpwr vgnd scs8hd_fill_2
XFILLER_130_68 vgnd vpwr scs8hd_decap_12
XPHY_704 vgnd vpwr scs8hd_decap_3
XPHY_715 vgnd vpwr scs8hd_decap_3
XPHY_726 vgnd vpwr scs8hd_decap_3
XFILLER_487_27 vgnd vpwr scs8hd_decap_12
XPHY_1314 vgnd vpwr scs8hd_tapvpwrvgnd_1
XPHY_1303 vgnd vpwr scs8hd_tapvpwrvgnd_1
XPHY_737 vgnd vpwr scs8hd_decap_3
XPHY_748 vgnd vpwr scs8hd_decap_3
XPHY_759 vgnd vpwr scs8hd_decap_3
XPHY_1336 vgnd vpwr scs8hd_tapvpwrvgnd_1
XPHY_1325 vgnd vpwr scs8hd_tapvpwrvgnd_1
XPHY_1347 vgnd vpwr scs8hd_tapvpwrvgnd_1
XPHY_1358 vgnd vpwr scs8hd_tapvpwrvgnd_1
XPHY_1369 vgnd vpwr scs8hd_tapvpwrvgnd_1
XFILLER_99_15 vgnd vpwr scs8hd_decap_12
XFILLER_99_59 vpwr vgnd scs8hd_fill_2
XFILLER_3_3 vgnd vpwr scs8hd_decap_12
XFILLER_392_3 vgnd vpwr scs8hd_decap_12
XFILLER_602_44 vgnd vpwr scs8hd_decap_12
XFILLER_0_15 vgnd vpwr scs8hd_decap_12
XFILLER_104_80 vgnd vpwr scs8hd_fill_1
XFILLER_0_59 vgnd vpwr scs8hd_decap_3
XFILLER_397_27 vgnd vpwr scs8hd_decap_12
XFILLER_36_3 vgnd vpwr scs8hd_decap_12
XFILLER_512_44 vgnd vpwr scs8hd_decap_12
XFILLER_588_15 vgnd vpwr scs8hd_decap_12
XFILLER_100_27 vgnd vpwr scs8hd_decap_4
XFILLER_537_74 vgnd vpwr scs8hd_decap_6
XFILLER_553_62 vgnd vpwr scs8hd_decap_12
XFILLER_553_51 vgnd vpwr scs8hd_decap_8
XFILLER_406_56 vgnd vpwr scs8hd_decap_12
XFILLER_85_39 vgnd vpwr scs8hd_decap_12
XFILLER_18_44 vgnd vpwr scs8hd_decap_12
XFILLER_422_44 vgnd vpwr scs8hd_decap_12
XFILLER_498_15 vgnd vpwr scs8hd_decap_12
XPHY_501 vgnd vpwr scs8hd_decap_3
XFILLER_34_32 vgnd vpwr scs8hd_decap_12
XPHY_512 vgnd vpwr scs8hd_decap_3
XPHY_523 vgnd vpwr scs8hd_decap_3
XPHY_534 vgnd vpwr scs8hd_decap_3
XPHY_1122 vgnd vpwr scs8hd_decap_3
XPHY_1111 vgnd vpwr scs8hd_decap_3
XPHY_1100 vgnd vpwr scs8hd_decap_3
XFILLER_140_3 vgnd vpwr scs8hd_decap_12
XFILLER_238_3 vgnd vpwr scs8hd_decap_12
XPHY_545 vgnd vpwr scs8hd_decap_3
XPHY_556 vgnd vpwr scs8hd_decap_3
XPHY_567 vgnd vpwr scs8hd_decap_3
XPHY_578 vgnd vpwr scs8hd_decap_3
XPHY_1166 vgnd vpwr scs8hd_decap_3
XPHY_1155 vgnd vpwr scs8hd_decap_3
XPHY_1144 vgnd vpwr scs8hd_decap_3
XPHY_1133 vgnd vpwr scs8hd_decap_3
XPHY_589 vgnd vpwr scs8hd_decap_3
XPHY_1199 vgnd vpwr scs8hd_decap_3
XPHY_1188 vgnd vpwr scs8hd_decap_3
XPHY_1177 vgnd vpwr scs8hd_decap_3
XFILLER_594_80 vgnd vpwr scs8hd_fill_1
XFILLER_405_3 vgnd vpwr scs8hd_decap_12
XFILLER_447_74 vgnd vpwr scs8hd_decap_6
XFILLER_59_62 vgnd vpwr scs8hd_decap_12
XFILLER_59_51 vgnd vpwr scs8hd_decap_8
XFILLER_316_56 vgnd vpwr scs8hd_decap_12
XFILLER_463_51 vgnd vpwr scs8hd_decap_8
XFILLER_463_62 vgnd vpwr scs8hd_decap_12
XFILLER_332_44 vgnd vpwr scs8hd_decap_12
XFILLER_201_59 vpwr vgnd scs8hd_fill_2
XFILLER_357_74 vgnd vpwr scs8hd_decap_6
XFILLER_590_27 vgnd vpwr scs8hd_decap_4
XFILLER_226_56 vgnd vpwr scs8hd_decap_12
XFILLER_373_51 vgnd vpwr scs8hd_decap_8
XFILLER_373_62 vgnd vpwr scs8hd_decap_12
XFILLER_242_44 vgnd vpwr scs8hd_decap_12
XFILLER_1_80 vgnd vpwr scs8hd_fill_1
XFILLER_111_15 vgnd vpwr scs8hd_decap_12
XFILLER_111_59 vpwr vgnd scs8hd_fill_2
XFILLER_267_74 vgnd vpwr scs8hd_decap_6
XFILLER_20_56 vgnd vpwr scs8hd_decap_12
XFILLER_136_56 vgnd vpwr scs8hd_decap_12
XFILLER_283_51 vgnd vpwr scs8hd_decap_8
XFILLER_283_62 vgnd vpwr scs8hd_decap_12
XFILLER_96_27 vgnd vpwr scs8hd_decap_4
XFILLER_152_44 vgnd vpwr scs8hd_decap_12
XFILLER_188_3 vgnd vpwr scs8hd_decap_12
XFILLER_589_80 vgnd vpwr scs8hd_fill_1
XFILLER_355_3 vgnd vpwr scs8hd_decap_12
XFILLER_522_3 vgnd vpwr scs8hd_decap_12
XPHY_320 vgnd vpwr scs8hd_decap_3
XPHY_331 vgnd vpwr scs8hd_decap_3
XPHY_342 vgnd vpwr scs8hd_decap_3
XPHY_353 vgnd vpwr scs8hd_decap_3
XPHY_364 vgnd vpwr scs8hd_decap_3
XPHY_375 vgnd vpwr scs8hd_decap_3
XPHY_386 vgnd vpwr scs8hd_decap_3
XFILLER_61_74 vgnd vpwr scs8hd_decap_6
XPHY_397 vgnd vpwr scs8hd_decap_3
XFILLER_177_74 vgnd vpwr scs8hd_decap_6
XFILLER_193_62 vgnd vpwr scs8hd_decap_12
XFILLER_569_39 vgnd vpwr scs8hd_decap_12
XFILLER_212_69 vgnd vpwr scs8hd_decap_12
XFILLER_499_80 vgnd vpwr scs8hd_fill_1
XFILLER_585_27 vgnd vpwr scs8hd_decap_12
XFILLER_518_32 vgnd vpwr scs8hd_decap_12
XFILLER_106_15 vgnd vpwr scs8hd_decap_12
XFILLER_479_39 vgnd vpwr scs8hd_decap_12
XFILLER_202_80 vgnd vpwr scs8hd_fill_1
XFILLER_495_27 vgnd vpwr scs8hd_decap_12
XANTENNA__04__A address[3] vgnd vpwr scs8hd_diode_2
XFILLER_428_32 vgnd vpwr scs8hd_decap_12
XFILLER_103_3 vgnd vpwr scs8hd_decap_12
XFILLER_472_3 vgnd vpwr scs8hd_decap_12
XFILLER_389_39 vgnd vpwr scs8hd_decap_12
XFILLER_112_80 vgnd vpwr scs8hd_fill_1
XPHY_161 vgnd vpwr scs8hd_decap_3
XPHY_150 vgnd vpwr scs8hd_decap_3
XPHY_194 vgnd vpwr scs8hd_decap_3
XPHY_183 vgnd vpwr scs8hd_decap_3
XPHY_172 vgnd vpwr scs8hd_decap_3
XFILLER_338_32 vgnd vpwr scs8hd_decap_12
XFILLER_207_47 vgnd vpwr scs8hd_decap_12
XFILLER_504_56 vgnd vpwr scs8hd_decap_12
XFILLER_299_39 vgnd vpwr scs8hd_decap_12
XFILLER_520_44 vgnd vpwr scs8hd_decap_12
XFILLER_596_15 vgnd vpwr scs8hd_decap_12
XFILLER_248_32 vgnd vpwr scs8hd_decap_12
XFILLER_545_74 vgnd vpwr scs8hd_decap_6
XFILLER_561_62 vgnd vpwr scs8hd_decap_12
XFILLER_561_51 vgnd vpwr scs8hd_decap_8
XFILLER_414_56 vgnd vpwr scs8hd_decap_12
XFILLER_93_39 vgnd vpwr scs8hd_decap_12
XFILLER_430_44 vgnd vpwr scs8hd_decap_12
XFILLER_26_44 vgnd vpwr scs8hd_decap_12
XFILLER_42_32 vgnd vpwr scs8hd_decap_12
XFILLER_158_32 vgnd vpwr scs8hd_decap_12
XFILLER_220_3 vgnd vpwr scs8hd_decap_8
XFILLER_318_3 vgnd vpwr scs8hd_decap_12
XFILLER_308_68 vgnd vpwr scs8hd_decap_12
XFILLER_455_74 vgnd vpwr scs8hd_decap_6
XFILLER_3_15 vgnd vpwr scs8hd_decap_12
XFILLER_107_80 vgnd vpwr scs8hd_fill_1
XFILLER_67_51 vgnd vpwr scs8hd_decap_8
XFILLER_3_59 vpwr vgnd scs8hd_fill_2
XFILLER_324_56 vgnd vpwr scs8hd_decap_12
XFILLER_471_51 vgnd vpwr scs8hd_decap_8
XFILLER_471_62 vgnd vpwr scs8hd_decap_12
XFILLER_67_62 vgnd vpwr scs8hd_decap_12
XFILLER_340_44 vgnd vpwr scs8hd_decap_12
XFILLER_66_3 vgnd vpwr scs8hd_decap_12
XFILLER_218_68 vgnd vpwr scs8hd_decap_12
XFILLER_365_74 vgnd vpwr scs8hd_decap_6
XFILLER_234_56 vgnd vpwr scs8hd_decap_12
XFILLER_381_51 vgnd vpwr scs8hd_decap_8
XFILLER_381_62 vgnd vpwr scs8hd_decap_12
XFILLER_103_27 vgnd vpwr scs8hd_decap_12
XFILLER_250_44 vgnd vpwr scs8hd_decap_12
XPHY_908 vgnd vpwr scs8hd_decap_3
XPHY_919 vgnd vpwr scs8hd_decap_3
XPHY_1507 vgnd vpwr scs8hd_tapvpwrvgnd_1
XPHY_1518 vgnd vpwr scs8hd_tapvpwrvgnd_1
XPHY_1529 vgnd vpwr scs8hd_tapvpwrvgnd_1
XFILLER_12_68 vgnd vpwr scs8hd_decap_12
XFILLER_128_68 vgnd vpwr scs8hd_decap_12
XFILLER_275_74 vgnd vpwr scs8hd_decap_6
XFILLER_144_56 vgnd vpwr scs8hd_decap_12
XFILLER_291_51 vgnd vpwr scs8hd_decap_8
XFILLER_291_62 vgnd vpwr scs8hd_decap_12
XFILLER_160_44 vgnd vpwr scs8hd_decap_12
XFILLER_170_3 vgnd vpwr scs8hd_decap_12
XFILLER_268_3 vgnd vpwr scs8hd_decap_12
XFILLER_597_80 vgnd vpwr scs8hd_fill_1
XFILLER_435_3 vgnd vpwr scs8hd_decap_12
XFILLER_602_3 vgnd vpwr scs8hd_decap_12
XFILLER_185_74 vgnd vpwr scs8hd_decap_6
Xlogical_tile_io_mode_io__4.logical_tile_io_mode_physical__iopad_0.GPIO_0_.buffer
+ right_width_0_height_0__pin_8_ logical_tile_io_mode_io__4.logical_tile_io_mode_physical__iopad_0.GPIO_0_.buffer/TEB
+ gfpga_pad_GPIO_PAD[4] vgnd vpwr scs8hd_ebufn_1
XFILLER_577_39 vpwr vgnd scs8hd_fill_2
XFILLER_300_80 vgnd vpwr scs8hd_fill_1
XFILLER_593_27 vgnd vpwr scs8hd_decap_12
XFILLER_526_32 vgnd vpwr scs8hd_decap_12
XFILLER_114_15 vgnd vpwr scs8hd_decap_12
XFILLER_4_80 vgnd vpwr scs8hd_fill_1
XPHY_705 vgnd vpwr scs8hd_decap_3
XPHY_716 vgnd vpwr scs8hd_decap_3
XPHY_727 vgnd vpwr scs8hd_decap_3
XFILLER_487_39 vgnd vpwr scs8hd_decap_12
XPHY_1315 vgnd vpwr scs8hd_tapvpwrvgnd_1
XPHY_1304 vgnd vpwr scs8hd_tapvpwrvgnd_1
XPHY_738 vgnd vpwr scs8hd_decap_3
XPHY_749 vgnd vpwr scs8hd_decap_3
XPHY_1337 vgnd vpwr scs8hd_tapvpwrvgnd_1
XPHY_1326 vgnd vpwr scs8hd_tapvpwrvgnd_1
XPHY_1348 vgnd vpwr scs8hd_tapvpwrvgnd_1
XFILLER_210_80 vgnd vpwr scs8hd_fill_1
XPHY_1359 vgnd vpwr scs8hd_tapvpwrvgnd_1
XFILLER_99_27 vgnd vpwr scs8hd_decap_12
XANTENNA__12__A _07_/C vgnd vpwr scs8hd_diode_2
XFILLER_436_32 vgnd vpwr scs8hd_decap_12
XFILLER_385_3 vgnd vpwr scs8hd_decap_12
XFILLER_602_56 vgnd vpwr scs8hd_decap_12
XFILLER_552_3 vgnd vpwr scs8hd_decap_12
XFILLER_0_27 vpwr vgnd scs8hd_fill_2
XFILLER_397_39 vgnd vpwr scs8hd_decap_12
XFILLER_120_80 vgnd vpwr scs8hd_fill_1
XFILLER_346_32 vgnd vpwr scs8hd_decap_12
XFILLER_29_3 vgnd vpwr scs8hd_decap_12
XFILLER_512_56 vgnd vpwr scs8hd_decap_12
XFILLER_588_27 vgnd vpwr scs8hd_decap_4
XFILLER_231_68 vgnd vpwr scs8hd_fill_1
XFILLER_231_79 vpwr vgnd scs8hd_fill_2
XFILLER_109_15 vgnd vpwr scs8hd_decap_12
XFILLER_256_32 vgnd vpwr scs8hd_decap_12
XFILLER_109_59 vpwr vgnd scs8hd_fill_2
XFILLER_553_74 vgnd vpwr scs8hd_decap_6
XFILLER_406_68 vgnd vpwr scs8hd_decap_12
XFILLER_205_80 vgnd vpwr scs8hd_fill_1
XFILLER_422_56 vgnd vpwr scs8hd_decap_12
XFILLER_18_56 vgnd vpwr scs8hd_decap_12
XFILLER_498_27 vgnd vpwr scs8hd_decap_4
XANTENNA__07__A _07_/A vgnd vpwr scs8hd_diode_2
XFILLER_34_44 vgnd vpwr scs8hd_decap_12
XPHY_502 vgnd vpwr scs8hd_decap_3
XPHY_513 vgnd vpwr scs8hd_decap_3
XPHY_524 vgnd vpwr scs8hd_decap_3
XPHY_535 vgnd vpwr scs8hd_decap_3
XPHY_1123 vgnd vpwr scs8hd_decap_3
XPHY_1112 vgnd vpwr scs8hd_decap_3
XPHY_1101 vgnd vpwr scs8hd_decap_3
XPHY_546 vgnd vpwr scs8hd_decap_3
XPHY_557 vgnd vpwr scs8hd_decap_3
XPHY_568 vgnd vpwr scs8hd_decap_3
XPHY_1156 vgnd vpwr scs8hd_decap_3
XPHY_1145 vgnd vpwr scs8hd_decap_3
XPHY_1134 vgnd vpwr scs8hd_decap_3
XFILLER_133_3 vgnd vpwr scs8hd_decap_12
XPHY_579 vgnd vpwr scs8hd_decap_3
XPHY_1189 vgnd vpwr scs8hd_decap_3
XPHY_1178 vgnd vpwr scs8hd_decap_3
XPHY_1167 vgnd vpwr scs8hd_decap_3
XFILLER_50_32 vgnd vpwr scs8hd_decap_12
XFILLER_166_32 vgnd vpwr scs8hd_decap_12
XFILLER_300_3 vgnd vpwr scs8hd_decap_12
XFILLER_316_68 vgnd vpwr scs8hd_decap_12
XFILLER_463_74 vgnd vpwr scs8hd_decap_6