* NGSPICE file created from grid_io_right.ext - technology: sky130A

* Black-box entry subcircuit for sky130_fd_sc_hd__decap_12 abstract view
.subckt sky130_fd_sc_hd__decap_12 VGND VNB VPB VPWR
.ends

* Black-box entry subcircuit for sky130_fd_sc_hd__decap_8 abstract view
.subckt sky130_fd_sc_hd__decap_8 VGND VNB VPB VPWR
.ends

* Black-box entry subcircuit for sky130_fd_sc_hd__diode_2 abstract view
.subckt sky130_fd_sc_hd__diode_2 DIODE VGND VNB VPB VPWR
.ends

* Black-box entry subcircuit for sky130_fd_sc_hd__fill_1 abstract view
.subckt sky130_fd_sc_hd__fill_1 VGND VNB VPB VPWR
.ends

* Black-box entry subcircuit for sky130_fd_sc_hd__tapvpwrvgnd_1 abstract view
.subckt sky130_fd_sc_hd__tapvpwrvgnd_1 VGND VPWR
.ends

* Black-box entry subcircuit for sky130_fd_sc_hd__fill_2 abstract view
.subckt sky130_fd_sc_hd__fill_2 VGND VNB VPB VPWR
.ends

* Black-box entry subcircuit for sky130_fd_sc_hd__decap_3 abstract view
.subckt sky130_fd_sc_hd__decap_3 VGND VNB VPB VPWR
.ends

* Black-box entry subcircuit for sky130_fd_sc_hd__decap_6 abstract view
.subckt sky130_fd_sc_hd__decap_6 VGND VNB VPB VPWR
.ends

* Black-box entry subcircuit for sky130_fd_sc_hd__decap_4 abstract view
.subckt sky130_fd_sc_hd__decap_4 VGND VNB VPB VPWR
.ends

* Black-box entry subcircuit for sky130_fd_sc_hd__dfxbp_1 abstract view
.subckt sky130_fd_sc_hd__dfxbp_1 D Q Q_N CLK VGND VNB VPB VPWR
.ends

* Black-box entry subcircuit for sky130_fd_sc_hd__buf_2 abstract view
.subckt sky130_fd_sc_hd__buf_2 A X VGND VNB VPB VPWR
.ends

* Black-box entry subcircuit for sky130_fd_sc_hd__inv_1 abstract view
.subckt sky130_fd_sc_hd__inv_1 A Y VGND VNB VPB VPWR
.ends

.subckt grid_io_right ccff_head ccff_tail gfpga_pad_GPIO_A gfpga_pad_GPIO_IE gfpga_pad_GPIO_OE
+ gfpga_pad_GPIO_Y left_width_0_height_0__pin_0_ left_width_0_height_0__pin_1_lower
+ left_width_0_height_0__pin_1_upper prog_clk VPWR VGND
XFILLER_63_39 VGND VGND VPWR VPWR sky130_fd_sc_hd__decap_12
XFILLER_37_62 VGND VGND VPWR VPWR sky130_fd_sc_hd__decap_12
XFILLER_37_51 VGND VGND VPWR VPWR sky130_fd_sc_hd__decap_8
XFILLER_6_129 VGND VGND VPWR VPWR sky130_fd_sc_hd__decap_12
XFILLER_12_32 VGND VGND VPWR VPWR sky130_fd_sc_hd__decap_12
XFILLER_23_86 VGND VGND VPWR VPWR sky130_fd_sc_hd__decap_12
XFILLER_23_31 VGND VGND VPWR VPWR sky130_fd_sc_hd__decap_12
XFILLER_56_117 VGND VGND VPWR VPWR sky130_fd_sc_hd__decap_12
XFILLER_38_117 VGND VGND VPWR VPWR sky130_fd_sc_hd__decap_12
XFILLER_45_62 VGND VGND VPWR VPWR sky130_fd_sc_hd__decap_12
XFILLER_45_51 VGND VGND VPWR VPWR sky130_fd_sc_hd__decap_8
XFILLER_29_74 VGND VGND VPWR VPWR sky130_fd_sc_hd__decap_12
XFILLER_20_32 VGND VGND VPWR VPWR sky130_fd_sc_hd__decap_12
XFILLER_6_56 VGND VGND VPWR VPWR sky130_fd_sc_hd__decap_12
XFILLER_13_3 VGND VGND VPWR VPWR sky130_fd_sc_hd__decap_12
XANTENNA__2__A gfpga_pad_GPIO_Y VGND VGND VPWR VPWR sky130_fd_sc_hd__diode_2
XFILLER_40_145 VGND VGND VPWR VPWR sky130_fd_sc_hd__fill_1
XFILLER_15_98 VGND VGND VPWR VPWR sky130_fd_sc_hd__decap_12
XFILLER_31_123 VGND VGND VPWR VPWR sky130_fd_sc_hd__decap_12
XFILLER_31_86 VGND VGND VPWR VPWR sky130_fd_sc_hd__decap_12
XPHY_192 VGND VPWR sky130_fd_sc_hd__tapvpwrvgnd_1
XPHY_181 VGND VPWR sky130_fd_sc_hd__tapvpwrvgnd_1
XPHY_170 VGND VPWR sky130_fd_sc_hd__tapvpwrvgnd_1
XFILLER_52_19 VGND VGND VPWR VPWR sky130_fd_sc_hd__decap_12
XFILLER_22_145 VGND VGND VPWR VPWR sky130_fd_sc_hd__fill_1
XFILLER_13_123 VGND VGND VPWR VPWR sky130_fd_sc_hd__decap_12
XFILLER_37_74 VGND VGND VPWR VPWR sky130_fd_sc_hd__decap_12
XFILLER_12_44 VGND VGND VPWR VPWR sky130_fd_sc_hd__decap_12
XFILLER_53_62 VGND VGND VPWR VPWR sky130_fd_sc_hd__decap_12
XFILLER_53_51 VGND VGND VPWR VPWR sky130_fd_sc_hd__decap_8
XFILLER_52_7 VGND VGND VPWR VPWR sky130_fd_sc_hd__decap_12
XFILLER_23_43 VGND VGND VPWR VPWR sky130_fd_sc_hd__decap_12
XFILLER_64_94 VGND VGND VPWR VPWR sky130_fd_sc_hd__decap_12
XFILLER_23_98 VGND VGND VPWR VPWR sky130_fd_sc_hd__decap_12
XFILLER_0_58 VGND VGND VPWR VPWR sky130_fd_sc_hd__fill_2
XFILLER_56_129 VGND VGND VPWR VPWR sky130_fd_sc_hd__decap_12
XFILLER_43_3 VGND VGND VPWR VPWR sky130_fd_sc_hd__decap_12
XFILLER_18_32 VGND VGND VPWR VPWR sky130_fd_sc_hd__decap_12
XFILLER_61_143 VGND VGND VPWR VPWR sky130_fd_sc_hd__decap_3
XFILLER_61_110 VGND VGND VPWR VPWR sky130_fd_sc_hd__decap_12
XFILLER_38_129 VGND VGND VPWR VPWR sky130_fd_sc_hd__decap_12
XFILLER_29_86 VGND VGND VPWR VPWR sky130_fd_sc_hd__decap_12
XFILLER_20_44 VGND VGND VPWR VPWR sky130_fd_sc_hd__decap_12
XFILLER_61_62 VGND VGND VPWR VPWR sky130_fd_sc_hd__decap_12
XFILLER_61_51 VGND VGND VPWR VPWR sky130_fd_sc_hd__decap_8
XFILLER_45_74 VGND VGND VPWR VPWR sky130_fd_sc_hd__decap_12
XFILLER_43_143 VGND VGND VPWR VPWR sky130_fd_sc_hd__decap_3
XFILLER_43_110 VGND VGND VPWR VPWR sky130_fd_sc_hd__decap_12
XFILLER_6_68 VGND VGND VPWR VPWR sky130_fd_sc_hd__decap_12
XFILLER_25_143 VGND VGND VPWR VPWR sky130_fd_sc_hd__decap_3
XFILLER_25_110 VGND VGND VPWR VPWR sky130_fd_sc_hd__decap_12
XFILLER_31_135 VGND VGND VPWR VPWR sky130_fd_sc_hd__decap_8
XFILLER_31_98 VGND VGND VPWR VPWR sky130_fd_sc_hd__decap_12
XPHY_193 VGND VPWR sky130_fd_sc_hd__tapvpwrvgnd_1
XPHY_182 VGND VPWR sky130_fd_sc_hd__tapvpwrvgnd_1
XPHY_160 VGND VPWR sky130_fd_sc_hd__tapvpwrvgnd_1
XPHY_171 VGND VPWR sky130_fd_sc_hd__tapvpwrvgnd_1
XFILLER_26_32 VGND VGND VPWR VPWR sky130_fd_sc_hd__decap_12
XFILLER_13_135 VGND VGND VPWR VPWR sky130_fd_sc_hd__decap_8
XFILLER_10_105 VGND VGND VPWR VPWR sky130_fd_sc_hd__decap_12
XFILLER_12_56 VGND VGND VPWR VPWR sky130_fd_sc_hd__decap_12
XFILLER_53_74 VGND VGND VPWR VPWR sky130_fd_sc_hd__decap_12
XFILLER_37_86 VGND VGND VPWR VPWR sky130_fd_sc_hd__decap_12
XFILLER_23_55 VGND VGND VPWR VPWR sky130_fd_sc_hd__decap_6
XFILLER_3_3 VGND VGND VPWR VPWR sky130_fd_sc_hd__decap_12
XFILLER_2_145 VGND VGND VPWR VPWR sky130_fd_sc_hd__fill_1
XFILLER_0_15 VGND VGND VPWR VPWR sky130_fd_sc_hd__decap_12
XFILLER_36_3 VGND VGND VPWR VPWR sky130_fd_sc_hd__decap_12
XFILLER_34_32 VGND VGND VPWR VPWR sky130_fd_sc_hd__decap_12
XFILLER_18_44 VGND VGND VPWR VPWR sky130_fd_sc_hd__decap_12
XFILLER_59_62 VGND VGND VPWR VPWR sky130_fd_sc_hd__decap_12
XFILLER_59_51 VGND VGND VPWR VPWR sky130_fd_sc_hd__decap_8
XFILLER_46_141 VGND VGND VPWR VPWR sky130_fd_sc_hd__decap_4
XFILLER_20_56 VGND VGND VPWR VPWR sky130_fd_sc_hd__decap_12
XFILLER_61_74 VGND VGND VPWR VPWR sky130_fd_sc_hd__decap_12
XFILLER_45_86 VGND VGND VPWR VPWR sky130_fd_sc_hd__decap_12
XFILLER_29_98 VGND VGND VPWR VPWR sky130_fd_sc_hd__decap_12
XFILLER_28_141 VGND VGND VPWR VPWR sky130_fd_sc_hd__decap_4
XPHY_194 VGND VPWR sky130_fd_sc_hd__tapvpwrvgnd_1
XPHY_183 VGND VPWR sky130_fd_sc_hd__tapvpwrvgnd_1
XPHY_150 VGND VPWR sky130_fd_sc_hd__tapvpwrvgnd_1
XPHY_161 VGND VPWR sky130_fd_sc_hd__tapvpwrvgnd_1
XPHY_172 VGND VPWR sky130_fd_sc_hd__tapvpwrvgnd_1
XFILLER_42_32 VGND VGND VPWR VPWR sky130_fd_sc_hd__decap_12
XFILLER_26_44 VGND VGND VPWR VPWR sky130_fd_sc_hd__decap_12
XFILLER_3_59 VGND VGND VPWR VPWR sky130_fd_sc_hd__fill_2
XFILLER_3_15 VGND VGND VPWR VPWR sky130_fd_sc_hd__decap_12
XFILLER_10_117 VGND VGND VPWR VPWR sky130_fd_sc_hd__decap_12
XFILLER_12_68 VGND VGND VPWR VPWR sky130_fd_sc_hd__decap_12
XFILLER_53_86 VGND VGND VPWR VPWR sky130_fd_sc_hd__decap_12
XFILLER_37_98 VGND VGND VPWR VPWR sky130_fd_sc_hd__decap_12
XFILLER_5_110 VGND VGND VPWR VPWR sky130_fd_sc_hd__decap_12
XFILLER_5_143 VGND VGND VPWR VPWR sky130_fd_sc_hd__decap_3
XFILLER_4_80 VGND VGND VPWR VPWR sky130_fd_sc_hd__decap_12
XFILLER_0_27 VGND VGND VPWR VPWR sky130_fd_sc_hd__decap_4
XFILLER_64_63 VGND VGND VPWR VPWR sky130_fd_sc_hd__decap_12
XFILLER_29_3 VGND VGND VPWR VPWR sky130_fd_sc_hd__decap_12
XFILLER_34_44 VGND VGND VPWR VPWR sky130_fd_sc_hd__decap_12
XFILLER_18_56 VGND VGND VPWR VPWR sky130_fd_sc_hd__decap_12
XFILLER_61_123 VGND VGND VPWR VPWR sky130_fd_sc_hd__decap_12
XFILLER_59_74 VGND VGND VPWR VPWR sky130_fd_sc_hd__decap_12
XFILLER_50_32 VGND VGND VPWR VPWR sky130_fd_sc_hd__decap_12
XFILLER_52_145 VGND VGND VPWR VPWR sky130_fd_sc_hd__fill_1
XFILLER_61_86 VGND VGND VPWR VPWR sky130_fd_sc_hd__decap_12
XFILLER_45_98 VGND VGND VPWR VPWR sky130_fd_sc_hd__decap_12
XFILLER_43_123 VGND VGND VPWR VPWR sky130_fd_sc_hd__decap_12
XFILLER_6_15 VGND VGND VPWR VPWR sky130_fd_sc_hd__decap_12
XFILLER_20_68 VGND VGND VPWR VPWR sky130_fd_sc_hd__decap_12
XFILLER_34_145 VGND VGND VPWR VPWR sky130_fd_sc_hd__fill_1
XFILLER_25_123 VGND VGND VPWR VPWR sky130_fd_sc_hd__decap_12
XPHY_195 VGND VPWR sky130_fd_sc_hd__tapvpwrvgnd_1
XPHY_184 VGND VPWR sky130_fd_sc_hd__tapvpwrvgnd_1
XPHY_140 VGND VPWR sky130_fd_sc_hd__tapvpwrvgnd_1
XPHY_151 VGND VPWR sky130_fd_sc_hd__tapvpwrvgnd_1
XFILLER_11_3 VGND VGND VPWR VPWR sky130_fd_sc_hd__decap_12
XPHY_162 VGND VPWR sky130_fd_sc_hd__tapvpwrvgnd_1
XFILLER_16_145 VGND VGND VPWR VPWR sky130_fd_sc_hd__fill_1
XPHY_173 VGND VPWR sky130_fd_sc_hd__tapvpwrvgnd_1
XFILLER_26_56 VGND VGND VPWR VPWR sky130_fd_sc_hd__decap_12
XFILLER_42_44 VGND VGND VPWR VPWR sky130_fd_sc_hd__decap_12
XFILLER_3_27 VGND VGND VPWR VPWR sky130_fd_sc_hd__decap_12
XFILLER_59_3 VGND VGND VPWR VPWR sky130_fd_sc_hd__decap_12
XFILLER_8_141 VGND VGND VPWR VPWR sky130_fd_sc_hd__decap_4
XFILLER_10_129 VGND VGND VPWR VPWR sky130_fd_sc_hd__decap_12
XFILLER_53_98 VGND VGND VPWR VPWR sky130_fd_sc_hd__decap_12
XFILLER_48_32 VGND VGND VPWR VPWR sky130_fd_sc_hd__decap_12
XFILLER_64_75 VGND VGND VPWR VPWR sky130_fd_sc_hd__decap_12
XFILLER_50_7 VGND VGND VPWR VPWR sky130_fd_sc_hd__decap_12
XFILLER_9_15 VGND VGND VPWR VPWR sky130_fd_sc_hd__decap_12
XFILLER_9_59 VGND VGND VPWR VPWR sky130_fd_sc_hd__fill_2
XFILLER_55_143 VGND VGND VPWR VPWR sky130_fd_sc_hd__decap_3
XFILLER_55_110 VGND VGND VPWR VPWR sky130_fd_sc_hd__decap_12
XFILLER_18_68 VGND VGND VPWR VPWR sky130_fd_sc_hd__decap_12
XFILLER_61_135 VGND VGND VPWR VPWR sky130_fd_sc_hd__decap_8
XFILLER_59_86 VGND VGND VPWR VPWR sky130_fd_sc_hd__decap_12
XFILLER_50_44 VGND VGND VPWR VPWR sky130_fd_sc_hd__decap_12
XFILLER_34_56 VGND VGND VPWR VPWR sky130_fd_sc_hd__decap_12
XFILLER_41_3 VGND VGND VPWR VPWR sky130_fd_sc_hd__decap_12
XFILLER_37_143 VGND VGND VPWR VPWR sky130_fd_sc_hd__decap_3
XFILLER_37_110 VGND VGND VPWR VPWR sky130_fd_sc_hd__decap_12
XFILLER_61_98 VGND VGND VPWR VPWR sky130_fd_sc_hd__decap_12
XFILLER_43_135 VGND VGND VPWR VPWR sky130_fd_sc_hd__decap_8
XFILLER_6_27 VGND VGND VPWR VPWR sky130_fd_sc_hd__decap_4
XFILLER_10_80 VGND VGND VPWR VPWR sky130_fd_sc_hd__decap_12
XFILLER_19_110 VGND VGND VPWR VPWR sky130_fd_sc_hd__decap_12
XFILLER_19_143 VGND VGND VPWR VPWR sky130_fd_sc_hd__decap_3
XFILLER_40_105 VGND VGND VPWR VPWR sky130_fd_sc_hd__decap_12
XFILLER_25_135 VGND VGND VPWR VPWR sky130_fd_sc_hd__decap_8
XFILLER_56_32 VGND VGND VPWR VPWR sky130_fd_sc_hd__decap_12
XPHY_196 VGND VPWR sky130_fd_sc_hd__tapvpwrvgnd_1
XPHY_185 VGND VPWR sky130_fd_sc_hd__tapvpwrvgnd_1
XPHY_174 VGND VPWR sky130_fd_sc_hd__tapvpwrvgnd_1
XPHY_141 VGND VPWR sky130_fd_sc_hd__tapvpwrvgnd_1
XPHY_130 VGND VPWR sky130_fd_sc_hd__tapvpwrvgnd_1
XPHY_152 VGND VPWR sky130_fd_sc_hd__tapvpwrvgnd_1
XPHY_163 VGND VPWR sky130_fd_sc_hd__tapvpwrvgnd_1
XFILLER_22_105 VGND VGND VPWR VPWR sky130_fd_sc_hd__decap_12
XFILLER_42_56 VGND VGND VPWR VPWR sky130_fd_sc_hd__decap_12
XFILLER_26_68 VGND VGND VPWR VPWR sky130_fd_sc_hd__decap_12
XFILLER_3_39 VGND VGND VPWR VPWR sky130_fd_sc_hd__decap_12
XFILLER_12_15 VGND VGND VPWR VPWR sky130_fd_sc_hd__decap_12
XFILLER_5_123 VGND VGND VPWR VPWR sky130_fd_sc_hd__decap_12
XFILLER_4_93 VGND VGND VPWR VPWR sky130_fd_sc_hd__decap_12
XFILLER_64_87 VGND VGND VPWR VPWR sky130_fd_sc_hd__decap_6
XFILLER_64_32 VGND VGND VPWR VPWR sky130_fd_sc_hd__decap_12
XFILLER_58_141 VGND VGND VPWR VPWR sky130_fd_sc_hd__decap_4
XFILLER_48_44 VGND VGND VPWR VPWR sky130_fd_sc_hd__decap_12
XFILLER_9_27 VGND VGND VPWR VPWR sky130_fd_sc_hd__decap_12
XFILLER_59_98 VGND VGND VPWR VPWR sky130_fd_sc_hd__decap_12
XFILLER_50_56 VGND VGND VPWR VPWR sky130_fd_sc_hd__decap_12
XFILLER_34_68 VGND VGND VPWR VPWR sky130_fd_sc_hd__decap_12
XFILLER_1_3 VGND VGND VPWR VPWR sky130_fd_sc_hd__decap_12
XFILLER_34_3 VGND VGND VPWR VPWR sky130_fd_sc_hd__decap_12
XFILLER_20_15 VGND VGND VPWR VPWR sky130_fd_sc_hd__decap_12
XFILLER_40_117 VGND VGND VPWR VPWR sky130_fd_sc_hd__decap_12
XFILLER_15_15 VGND VGND VPWR VPWR sky130_fd_sc_hd__decap_12
XFILLER_15_59 VGND VGND VPWR VPWR sky130_fd_sc_hd__fill_2
XPHY_120 VGND VGND VPWR VPWR sky130_fd_sc_hd__decap_3
XFILLER_56_44 VGND VGND VPWR VPWR sky130_fd_sc_hd__decap_12
XPHY_197 VGND VPWR sky130_fd_sc_hd__tapvpwrvgnd_1
XPHY_186 VGND VPWR sky130_fd_sc_hd__tapvpwrvgnd_1
XPHY_175 VGND VPWR sky130_fd_sc_hd__tapvpwrvgnd_1
XPHY_131 VGND VPWR sky130_fd_sc_hd__tapvpwrvgnd_1
XPHY_142 VGND VPWR sky130_fd_sc_hd__tapvpwrvgnd_1
XPHY_153 VGND VPWR sky130_fd_sc_hd__tapvpwrvgnd_1
XPHY_164 VGND VPWR sky130_fd_sc_hd__tapvpwrvgnd_1
XFILLER_22_117 VGND VGND VPWR VPWR sky130_fd_sc_hd__decap_12
XPHY_0 VGND VGND VPWR VPWR sky130_fd_sc_hd__decap_3
XFILLER_42_68 VGND VGND VPWR VPWR sky130_fd_sc_hd__decap_12
XFILLER_16_80 VGND VGND VPWR VPWR sky130_fd_sc_hd__decap_12
XFILLER_12_27 VGND VGND VPWR VPWR sky130_fd_sc_hd__decap_4
XFILLER_5_135 VGND VGND VPWR VPWR sky130_fd_sc_hd__decap_8
XFILLER_64_3 VGND VGND VPWR VPWR sky130_fd_sc_hd__decap_12
XFILLER_64_44 VGND VGND VPWR VPWR sky130_fd_sc_hd__decap_12
XFILLER_48_56 VGND VGND VPWR VPWR sky130_fd_sc_hd__decap_12
XFILLER_2_105 VGND VGND VPWR VPWR sky130_fd_sc_hd__decap_12
XFILLER_9_39 VGND VGND VPWR VPWR sky130_fd_sc_hd__decap_12
XFILLER_64_145 VGND VGND VPWR VPWR sky130_fd_sc_hd__fill_1
XFILLER_55_123 VGND VGND VPWR VPWR sky130_fd_sc_hd__decap_12
XFILLER_50_68 VGND VGND VPWR VPWR sky130_fd_sc_hd__decap_12
XFILLER_18_15 VGND VGND VPWR VPWR sky130_fd_sc_hd__decap_12
XFILLER_46_145 VGND VGND VPWR VPWR sky130_fd_sc_hd__fill_1
XFILLER_27_3 VGND VGND VPWR VPWR sky130_fd_sc_hd__decap_12
XFILLER_24_80 VGND VGND VPWR VPWR sky130_fd_sc_hd__decap_12
XFILLER_37_123 VGND VGND VPWR VPWR sky130_fd_sc_hd__decap_12
XFILLER_28_145 VGND VGND VPWR VPWR sky130_fd_sc_hd__fill_1
XFILLER_1_62 VGND VGND VPWR VPWR sky130_fd_sc_hd__decap_12
XFILLER_1_51 VGND VGND VPWR VPWR sky130_fd_sc_hd__decap_8
XFILLER_20_27 VGND VGND VPWR VPWR sky130_fd_sc_hd__decap_4
XFILLER_10_93 VGND VGND VPWR VPWR sky130_fd_sc_hd__decap_12
XFILLER_19_123 VGND VGND VPWR VPWR sky130_fd_sc_hd__decap_12
XFILLER_40_129 VGND VGND VPWR VPWR sky130_fd_sc_hd__decap_12
XFILLER_15_27 VGND VGND VPWR VPWR sky130_fd_sc_hd__decap_12
XPHY_121 VGND VGND VPWR VPWR sky130_fd_sc_hd__decap_3
XFILLER_56_56 VGND VGND VPWR VPWR sky130_fd_sc_hd__decap_12
XPHY_110 VGND VGND VPWR VPWR sky130_fd_sc_hd__decap_3
XPHY_198 VGND VPWR sky130_fd_sc_hd__tapvpwrvgnd_1
XFILLER_31_59 VGND VGND VPWR VPWR sky130_fd_sc_hd__fill_2
XFILLER_31_15 VGND VGND VPWR VPWR sky130_fd_sc_hd__decap_12
XPHY_187 VGND VPWR sky130_fd_sc_hd__tapvpwrvgnd_1
XPHY_176 VGND VPWR sky130_fd_sc_hd__tapvpwrvgnd_1
XPHY_132 VGND VPWR sky130_fd_sc_hd__tapvpwrvgnd_1
XPHY_143 VGND VPWR sky130_fd_sc_hd__tapvpwrvgnd_1
XPHY_154 VGND VPWR sky130_fd_sc_hd__tapvpwrvgnd_1
XPHY_165 VGND VPWR sky130_fd_sc_hd__tapvpwrvgnd_1
XFILLER_22_129 VGND VGND VPWR VPWR sky130_fd_sc_hd__decap_12
XPHY_1 VGND VGND VPWR VPWR sky130_fd_sc_hd__decap_3
XFILLER_26_15 VGND VGND VPWR VPWR sky130_fd_sc_hd__decap_12
XFILLER_32_80 VGND VGND VPWR VPWR sky130_fd_sc_hd__decap_12
XFILLER_57_3 VGND VGND VPWR VPWR sky130_fd_sc_hd__decap_12
XFILLER_64_56 VGND VGND VPWR VPWR sky130_fd_sc_hd__decap_6
XFILLER_48_68 VGND VGND VPWR VPWR sky130_fd_sc_hd__decap_12
XFILLER_2_117 VGND VGND VPWR VPWR sky130_fd_sc_hd__decap_12
XFILLER_49_143 VGND VGND VPWR VPWR sky130_fd_sc_hd__decap_3
XFILLER_49_110 VGND VGND VPWR VPWR sky130_fd_sc_hd__decap_12
XFILLER_55_135 VGND VGND VPWR VPWR sky130_fd_sc_hd__decap_8
XFILLER_34_15 VGND VGND VPWR VPWR sky130_fd_sc_hd__decap_12
XFILLER_18_27 VGND VGND VPWR VPWR sky130_fd_sc_hd__decap_4
XFILLER_40_80 VGND VGND VPWR VPWR sky130_fd_sc_hd__decap_12
XFILLER_52_105 VGND VGND VPWR VPWR sky130_fd_sc_hd__decap_12
XFILLER_37_135 VGND VGND VPWR VPWR sky130_fd_sc_hd__decap_8
XFILLER_29_15 VGND VGND VPWR VPWR sky130_fd_sc_hd__decap_12
XFILLER_1_74 VGND VGND VPWR VPWR sky130_fd_sc_hd__decap_12
XFILLER_29_59 VGND VGND VPWR VPWR sky130_fd_sc_hd__fill_2
XFILLER_34_105 VGND VGND VPWR VPWR sky130_fd_sc_hd__decap_12
XFILLER_19_135 VGND VGND VPWR VPWR sky130_fd_sc_hd__decap_8
XFILLER_56_68 VGND VGND VPWR VPWR sky130_fd_sc_hd__decap_12
XPHY_100 VGND VGND VPWR VPWR sky130_fd_sc_hd__decap_3
XFILLER_31_27 VGND VGND VPWR VPWR sky130_fd_sc_hd__decap_12
XFILLER_15_39 VGND VGND VPWR VPWR sky130_fd_sc_hd__decap_12
XFILLER_16_105 VGND VGND VPWR VPWR sky130_fd_sc_hd__decap_12
XPHY_122 VGND VGND VPWR VPWR sky130_fd_sc_hd__decap_3
XPHY_111 VGND VGND VPWR VPWR sky130_fd_sc_hd__decap_3
XPHY_199 VGND VPWR sky130_fd_sc_hd__tapvpwrvgnd_1
XPHY_188 VGND VPWR sky130_fd_sc_hd__tapvpwrvgnd_1
XPHY_177 VGND VPWR sky130_fd_sc_hd__tapvpwrvgnd_1
XPHY_133 VGND VPWR sky130_fd_sc_hd__tapvpwrvgnd_1
XPHY_2 VGND VGND VPWR VPWR sky130_fd_sc_hd__decap_3
XPHY_144 VGND VPWR sky130_fd_sc_hd__tapvpwrvgnd_1
XPHY_155 VGND VPWR sky130_fd_sc_hd__tapvpwrvgnd_1
XPHY_166 VGND VPWR sky130_fd_sc_hd__tapvpwrvgnd_1
XFILLER_42_15 VGND VGND VPWR VPWR sky130_fd_sc_hd__decap_12
XFILLER_30_141 VGND VGND VPWR VPWR sky130_fd_sc_hd__decap_4
XFILLER_26_27 VGND VGND VPWR VPWR sky130_fd_sc_hd__decap_4
XFILLER_21_130 VGND VGND VPWR VPWR sky130_fd_sc_hd__decap_12
XFILLER_7_51 VGND VGND VPWR VPWR sky130_fd_sc_hd__decap_8
XFILLER_7_62 VGND VGND VPWR VPWR sky130_fd_sc_hd__decap_12
XFILLER_8_145 VGND VGND VPWR VPWR sky130_fd_sc_hd__fill_1
XFILLER_12_141 VGND VGND VPWR VPWR sky130_fd_sc_hd__decap_4
XFILLER_16_93 VGND VGND VPWR VPWR sky130_fd_sc_hd__decap_12
XFILLER_37_59 VGND VGND VPWR VPWR sky130_fd_sc_hd__fill_2
XFILLER_37_15 VGND VGND VPWR VPWR sky130_fd_sc_hd__decap_12
XFILLER_2_129 VGND VGND VPWR VPWR sky130_fd_sc_hd__decap_12
XFILLER_64_125 VGND VGND VPWR VPWR sky130_fd_sc_hd__decap_12
XFILLER_38_80 VGND VGND VPWR VPWR sky130_fd_sc_hd__decap_12
XFILLER_34_27 VGND VGND VPWR VPWR sky130_fd_sc_hd__decap_4
XFILLER_24_93 VGND VGND VPWR VPWR sky130_fd_sc_hd__decap_12
XFILLER_52_117 VGND VGND VPWR VPWR sky130_fd_sc_hd__decap_12
XFILLER_1_86 VGND VGND VPWR VPWR sky130_fd_sc_hd__decap_12
XFILLER_45_59 VGND VGND VPWR VPWR sky130_fd_sc_hd__fill_2
XFILLER_45_15 VGND VGND VPWR VPWR sky130_fd_sc_hd__decap_12
XFILLER_29_27 VGND VGND VPWR VPWR sky130_fd_sc_hd__decap_12
XFILLER_34_117 VGND VGND VPWR VPWR sky130_fd_sc_hd__decap_12
XFILLER_32_3 VGND VGND VPWR VPWR sky130_fd_sc_hd__decap_12
XFILLER_31_39 VGND VGND VPWR VPWR sky130_fd_sc_hd__decap_12
XPHY_123 VGND VGND VPWR VPWR sky130_fd_sc_hd__decap_3
XPHY_112 VGND VGND VPWR VPWR sky130_fd_sc_hd__decap_3
XPHY_101 VGND VGND VPWR VPWR sky130_fd_sc_hd__decap_3
XPHY_189 VGND VPWR sky130_fd_sc_hd__tapvpwrvgnd_1
XPHY_178 VGND VPWR sky130_fd_sc_hd__tapvpwrvgnd_1
XPHY_134 VGND VPWR sky130_fd_sc_hd__tapvpwrvgnd_1
XPHY_145 VGND VPWR sky130_fd_sc_hd__tapvpwrvgnd_1
XPHY_156 VGND VPWR sky130_fd_sc_hd__tapvpwrvgnd_1
XFILLER_16_117 VGND VGND VPWR VPWR sky130_fd_sc_hd__decap_12
XPHY_167 VGND VPWR sky130_fd_sc_hd__tapvpwrvgnd_1
XFILLER_46_80 VGND VGND VPWR VPWR sky130_fd_sc_hd__decap_12
XPHY_3 VGND VGND VPWR VPWR sky130_fd_sc_hd__decap_3
XFILLER_7_74 VGND VGND VPWR VPWR sky130_fd_sc_hd__decap_12
XFILLER_42_27 VGND VGND VPWR VPWR sky130_fd_sc_hd__decap_4
XFILLER_21_142 VGND VGND VPWR VPWR sky130_fd_sc_hd__decap_4
XFILLER_32_93 VGND VGND VPWR VPWR sky130_fd_sc_hd__decap_12
XANTENNA_logical_tile_io_mode_io__0.logical_tile_io_mode_physical__iopad_0.GPIO_sky130_fd_sc_hd__dfxbp_1_mem.sky130_fd_sc_hd__dfxbp_1_0__CLK
+ prog_clk VGND VGND VPWR VPWR sky130_fd_sc_hd__diode_2
XFILLER_53_59 VGND VGND VPWR VPWR sky130_fd_sc_hd__fill_2
XFILLER_53_15 VGND VGND VPWR VPWR sky130_fd_sc_hd__decap_12
XFILLER_37_27 VGND VGND VPWR VPWR sky130_fd_sc_hd__decap_12
XFILLER_48_15 VGND VGND VPWR VPWR sky130_fd_sc_hd__decap_12
XFILLER_58_145 VGND VGND VPWR VPWR sky130_fd_sc_hd__fill_1
XFILLER_49_123 VGND VGND VPWR VPWR sky130_fd_sc_hd__decap_12
XFILLER_13_51 VGND VGND VPWR VPWR sky130_fd_sc_hd__decap_8
XFILLER_13_62 VGND VGND VPWR VPWR sky130_fd_sc_hd__decap_12
XFILLER_64_137 VGND VGND VPWR VPWR sky130_fd_sc_hd__decap_8
XFILLER_62_3 VGND VGND VPWR VPWR sky130_fd_sc_hd__decap_12
XFILLER_54_80 VGND VGND VPWR VPWR sky130_fd_sc_hd__decap_12
XFILLER_52_129 VGND VGND VPWR VPWR sky130_fd_sc_hd__decap_12
XFILLER_40_93 VGND VGND VPWR VPWR sky130_fd_sc_hd__decap_12
XFILLER_1_98 VGND VGND VPWR VPWR sky130_fd_sc_hd__decap_12
XFILLER_61_59 VGND VGND VPWR VPWR sky130_fd_sc_hd__fill_2
XFILLER_61_15 VGND VGND VPWR VPWR sky130_fd_sc_hd__decap_12
XFILLER_45_27 VGND VGND VPWR VPWR sky130_fd_sc_hd__decap_12
XFILLER_29_39 VGND VGND VPWR VPWR sky130_fd_sc_hd__decap_12
XFILLER_34_129 VGND VGND VPWR VPWR sky130_fd_sc_hd__decap_12
XFILLER_25_3 VGND VGND VPWR VPWR sky130_fd_sc_hd__decap_12
XPHY_124 VGND VGND VPWR VPWR sky130_fd_sc_hd__decap_3
XPHY_113 VGND VGND VPWR VPWR sky130_fd_sc_hd__decap_3
XFILLER_56_15 VGND VGND VPWR VPWR sky130_fd_sc_hd__decap_12
XPHY_102 VGND VGND VPWR VPWR sky130_fd_sc_hd__decap_3
XPHY_179 VGND VPWR sky130_fd_sc_hd__tapvpwrvgnd_1
XFILLER_21_62 VGND VGND VPWR VPWR sky130_fd_sc_hd__decap_12
XFILLER_21_51 VGND VGND VPWR VPWR sky130_fd_sc_hd__decap_8
XPHY_135 VGND VPWR sky130_fd_sc_hd__tapvpwrvgnd_1
XPHY_146 VGND VPWR sky130_fd_sc_hd__tapvpwrvgnd_1
XPHY_157 VGND VPWR sky130_fd_sc_hd__tapvpwrvgnd_1
XFILLER_16_129 VGND VGND VPWR VPWR sky130_fd_sc_hd__decap_12
XPHY_168 VGND VPWR sky130_fd_sc_hd__tapvpwrvgnd_1
XFILLER_62_80 VGND VGND VPWR VPWR sky130_fd_sc_hd__decap_12
XPHY_4 VGND VGND VPWR VPWR sky130_fd_sc_hd__decap_3
XFILLER_7_86 VGND VGND VPWR VPWR sky130_fd_sc_hd__decap_12
XFILLER_21_110 VGND VGND VPWR VPWR sky130_fd_sc_hd__decap_12
XFILLER_53_27 VGND VGND VPWR VPWR sky130_fd_sc_hd__decap_12
XFILLER_37_39 VGND VGND VPWR VPWR sky130_fd_sc_hd__decap_12
XFILLER_23_19 VGND VGND VPWR VPWR sky130_fd_sc_hd__decap_12
XFILLER_4_32 VGND VGND VPWR VPWR sky130_fd_sc_hd__decap_12
XFILLER_64_15 VGND VGND VPWR VPWR sky130_fd_sc_hd__decap_12
XFILLER_48_27 VGND VGND VPWR VPWR sky130_fd_sc_hd__decap_4
XFILLER_13_74 VGND VGND VPWR VPWR sky130_fd_sc_hd__decap_12
XFILLER_55_3 VGND VGND VPWR VPWR sky130_fd_sc_hd__decap_12
XFILLER_49_135 VGND VGND VPWR VPWR sky130_fd_sc_hd__decap_8
XFILLER_38_93 VGND VGND VPWR VPWR sky130_fd_sc_hd__decap_12
XFILLER_59_59 VGND VGND VPWR VPWR sky130_fd_sc_hd__fill_2
XFILLER_59_15 VGND VGND VPWR VPWR sky130_fd_sc_hd__decap_12
XFILLER_46_105 VGND VGND VPWR VPWR sky130_fd_sc_hd__decap_12
XFILLER_60_141 VGND VGND VPWR VPWR sky130_fd_sc_hd__decap_4
XFILLER_45_39 VGND VGND VPWR VPWR sky130_fd_sc_hd__decap_12
XFILLER_28_105 VGND VGND VPWR VPWR sky130_fd_sc_hd__decap_12
XFILLER_61_27 VGND VGND VPWR VPWR sky130_fd_sc_hd__decap_12
XFILLER_42_141 VGND VGND VPWR VPWR sky130_fd_sc_hd__decap_4
XFILLER_19_51 VGND VGND VPWR VPWR sky130_fd_sc_hd__decap_8
XFILLER_19_62 VGND VGND VPWR VPWR sky130_fd_sc_hd__decap_12
XFILLER_18_3 VGND VGND VPWR VPWR sky130_fd_sc_hd__decap_12
XPHY_125 VGND VGND VPWR VPWR sky130_fd_sc_hd__decap_3
XPHY_114 VGND VGND VPWR VPWR sky130_fd_sc_hd__decap_3
XFILLER_56_27 VGND VGND VPWR VPWR sky130_fd_sc_hd__decap_4
XPHY_103 VGND VGND VPWR VPWR sky130_fd_sc_hd__decap_3
XFILLER_24_141 VGND VGND VPWR VPWR sky130_fd_sc_hd__decap_4
XFILLER_21_74 VGND VGND VPWR VPWR sky130_fd_sc_hd__decap_12
XPHY_136 VGND VPWR sky130_fd_sc_hd__tapvpwrvgnd_1
XPHY_147 VGND VPWR sky130_fd_sc_hd__tapvpwrvgnd_1
XPHY_158 VGND VPWR sky130_fd_sc_hd__tapvpwrvgnd_1
XPHY_169 VGND VPWR sky130_fd_sc_hd__tapvpwrvgnd_1
XFILLER_46_93 VGND VGND VPWR VPWR sky130_fd_sc_hd__decap_12
XPHY_5 VGND VGND VPWR VPWR sky130_fd_sc_hd__decap_3
XFILLER_7_98 VGND VGND VPWR VPWR sky130_fd_sc_hd__decap_12
XFILLER_53_39 VGND VGND VPWR VPWR sky130_fd_sc_hd__decap_12
XFILLER_27_62 VGND VGND VPWR VPWR sky130_fd_sc_hd__decap_12
XFILLER_27_51 VGND VGND VPWR VPWR sky130_fd_sc_hd__decap_8
XFILLER_4_44 VGND VGND VPWR VPWR sky130_fd_sc_hd__decap_12
XFILLER_64_27 VGND VGND VPWR VPWR sky130_fd_sc_hd__decap_4
XFILLER_13_86 VGND VGND VPWR VPWR sky130_fd_sc_hd__decap_12
XFILLER_64_106 VGND VGND VPWR VPWR sky130_fd_sc_hd__decap_12
XFILLER_54_93 VGND VGND VPWR VPWR sky130_fd_sc_hd__decap_12
XFILLER_1_143 VGND VGND VPWR VPWR sky130_fd_sc_hd__decap_3
XFILLER_1_110 VGND VGND VPWR VPWR sky130_fd_sc_hd__decap_12
XFILLER_59_27 VGND VGND VPWR VPWR sky130_fd_sc_hd__decap_12
XFILLER_48_3 VGND VGND VPWR VPWR sky130_fd_sc_hd__decap_12
XFILLER_46_117 VGND VGND VPWR VPWR sky130_fd_sc_hd__decap_12
XFILLER_28_117 VGND VGND VPWR VPWR sky130_fd_sc_hd__decap_12
XFILLER_61_39 VGND VGND VPWR VPWR sky130_fd_sc_hd__decap_12
XFILLER_35_51 VGND VGND VPWR VPWR sky130_fd_sc_hd__decap_8
XFILLER_10_32 VGND VGND VPWR VPWR sky130_fd_sc_hd__decap_12
XFILLER_19_74 VGND VGND VPWR VPWR sky130_fd_sc_hd__decap_12
XFILLER_35_62 VGND VGND VPWR VPWR sky130_fd_sc_hd__decap_12
XPHY_126 VGND VGND VPWR VPWR sky130_fd_sc_hd__decap_3
XPHY_115 VGND VGND VPWR VPWR sky130_fd_sc_hd__decap_3
XPHY_104 VGND VGND VPWR VPWR sky130_fd_sc_hd__decap_3
XPHY_137 VGND VPWR sky130_fd_sc_hd__tapvpwrvgnd_1
XPHY_148 VGND VPWR sky130_fd_sc_hd__tapvpwrvgnd_1
XPHY_159 VGND VPWR sky130_fd_sc_hd__tapvpwrvgnd_1
XFILLER_62_93 VGND VGND VPWR VPWR sky130_fd_sc_hd__decap_12
XFILLER_30_145 VGND VGND VPWR VPWR sky130_fd_sc_hd__fill_1
XFILLER_21_86 VGND VGND VPWR VPWR sky130_fd_sc_hd__decap_12
XPHY_6 VGND VGND VPWR VPWR sky130_fd_sc_hd__decap_3
XFILLER_30_3 VGND VGND VPWR VPWR sky130_fd_sc_hd__decap_12
XFILLER_8_105 VGND VGND VPWR VPWR sky130_fd_sc_hd__decap_12
XFILLER_12_145 VGND VGND VPWR VPWR sky130_fd_sc_hd__fill_1
XFILLER_43_62 VGND VGND VPWR VPWR sky130_fd_sc_hd__decap_12
XFILLER_43_51 VGND VGND VPWR VPWR sky130_fd_sc_hd__decap_8
XFILLER_27_74 VGND VGND VPWR VPWR sky130_fd_sc_hd__decap_12
XFILLER_4_141 VGND VGND VPWR VPWR sky130_fd_sc_hd__decap_4
XFILLER_4_56 VGND VGND VPWR VPWR sky130_fd_sc_hd__decap_12
XANTENNA__0__A left_width_0_height_0__pin_0_ VGND VGND VPWR VPWR sky130_fd_sc_hd__diode_2
XFILLER_64_118 VGND VGND VPWR VPWR sky130_fd_sc_hd__decap_6
XFILLER_8_3 VGND VGND VPWR VPWR sky130_fd_sc_hd__decap_12
XFILLER_13_98 VGND VGND VPWR VPWR sky130_fd_sc_hd__decap_12
XFILLER_50_19 VGND VGND VPWR VPWR sky130_fd_sc_hd__decap_12
Xlogical_tile_io_mode_io__0.logical_tile_io_mode_physical__iopad_0.GPIO_sky130_fd_sc_hd__dfxbp_1_mem.sky130_fd_sc_hd__dfxbp_1_0_
+ ccff_head ccff_tail logical_tile_io_mode_io__0.logical_tile_io_mode_physical__iopad_0.GPIO_sky130_fd_sc_hd__dfxbp_1_mem.sky130_fd_sc_hd__dfxbp_1_0_/Q_N
+ prog_clk VGND VGND VPWR VPWR sky130_fd_sc_hd__dfxbp_1
XFILLER_59_39 VGND VGND VPWR VPWR sky130_fd_sc_hd__decap_12
XFILLER_46_129 VGND VGND VPWR VPWR sky130_fd_sc_hd__decap_12
XFILLER_60_3 VGND VGND VPWR VPWR sky130_fd_sc_hd__decap_12
XFILLER_51_143 VGND VGND VPWR VPWR sky130_fd_sc_hd__decap_3
XFILLER_51_110 VGND VGND VPWR VPWR sky130_fd_sc_hd__decap_12
XFILLER_28_129 VGND VGND VPWR VPWR sky130_fd_sc_hd__decap_12
XFILLER_10_44 VGND VGND VPWR VPWR sky130_fd_sc_hd__decap_12
XFILLER_51_62 VGND VGND VPWR VPWR sky130_fd_sc_hd__decap_12
XFILLER_35_74 VGND VGND VPWR VPWR sky130_fd_sc_hd__decap_12
XFILLER_19_86 VGND VGND VPWR VPWR sky130_fd_sc_hd__decap_12
XPHY_116 VGND VGND VPWR VPWR sky130_fd_sc_hd__decap_3
XPHY_105 VGND VGND VPWR VPWR sky130_fd_sc_hd__decap_3
XFILLER_33_143 VGND VGND VPWR VPWR sky130_fd_sc_hd__decap_3
XFILLER_33_110 VGND VGND VPWR VPWR sky130_fd_sc_hd__decap_12
XPHY_127 VGND VGND VPWR VPWR sky130_fd_sc_hd__decap_3
XFILLER_21_98 VGND VGND VPWR VPWR sky130_fd_sc_hd__decap_12
XPHY_7 VGND VGND VPWR VPWR sky130_fd_sc_hd__decap_3
XPHY_138 VGND VPWR sky130_fd_sc_hd__tapvpwrvgnd_1
XPHY_149 VGND VPWR sky130_fd_sc_hd__tapvpwrvgnd_1
XFILLER_15_110 VGND VGND VPWR VPWR sky130_fd_sc_hd__decap_12
XFILLER_15_143 VGND VGND VPWR VPWR sky130_fd_sc_hd__decap_3
XFILLER_23_3 VGND VGND VPWR VPWR sky130_fd_sc_hd__fill_2
XANTENNA__3__A gfpga_pad_GPIO_Y VGND VGND VPWR VPWR sky130_fd_sc_hd__diode_2
XFILLER_8_117 VGND VGND VPWR VPWR sky130_fd_sc_hd__decap_12
XFILLER_16_32 VGND VGND VPWR VPWR sky130_fd_sc_hd__decap_12
XFILLER_43_74 VGND VGND VPWR VPWR sky130_fd_sc_hd__decap_12
XFILLER_27_86 VGND VGND VPWR VPWR sky130_fd_sc_hd__decap_12
XFILLER_4_68 VGND VGND VPWR VPWR sky130_fd_sc_hd__decap_12
XFILLER_58_105 VGND VGND VPWR VPWR sky130_fd_sc_hd__decap_12
XFILLER_1_123 VGND VGND VPWR VPWR sky130_fd_sc_hd__decap_12
XFILLER_54_141 VGND VGND VPWR VPWR sky130_fd_sc_hd__decap_4
XFILLER_24_32 VGND VGND VPWR VPWR sky130_fd_sc_hd__decap_12
XFILLER_53_3 VGND VGND VPWR VPWR sky130_fd_sc_hd__decap_12
XFILLER_49_62 VGND VGND VPWR VPWR sky130_fd_sc_hd__decap_12
XFILLER_36_141 VGND VGND VPWR VPWR sky130_fd_sc_hd__decap_4
XFILLER_10_56 VGND VGND VPWR VPWR sky130_fd_sc_hd__decap_12
XFILLER_51_74 VGND VGND VPWR VPWR sky130_fd_sc_hd__decap_12
XFILLER_35_86 VGND VGND VPWR VPWR sky130_fd_sc_hd__decap_12
XFILLER_19_98 VGND VGND VPWR VPWR sky130_fd_sc_hd__decap_12
XPHY_128 VGND VGND VPWR VPWR sky130_fd_sc_hd__decap_3
XPHY_117 VGND VGND VPWR VPWR sky130_fd_sc_hd__decap_3
XPHY_106 VGND VGND VPWR VPWR sky130_fd_sc_hd__decap_3
XPHY_139 VGND VPWR sky130_fd_sc_hd__tapvpwrvgnd_1
XPHY_8 VGND VGND VPWR VPWR sky130_fd_sc_hd__decap_3
XFILLER_16_3 VGND VGND VPWR VPWR sky130_fd_sc_hd__decap_12
XFILLER_16_44 VGND VGND VPWR VPWR sky130_fd_sc_hd__decap_12
XFILLER_57_62 VGND VGND VPWR VPWR sky130_fd_sc_hd__decap_12
XFILLER_57_51 VGND VGND VPWR VPWR sky130_fd_sc_hd__decap_8
XFILLER_32_32 VGND VGND VPWR VPWR sky130_fd_sc_hd__decap_12
XFILLER_8_129 VGND VGND VPWR VPWR sky130_fd_sc_hd__decap_12
XFILLER_43_86 VGND VGND VPWR VPWR sky130_fd_sc_hd__decap_12
XFILLER_27_98 VGND VGND VPWR VPWR sky130_fd_sc_hd__decap_12
XFILLER_58_117 VGND VGND VPWR VPWR sky130_fd_sc_hd__decap_12
XFILLER_1_135 VGND VGND VPWR VPWR sky130_fd_sc_hd__decap_8
XFILLER_60_145 VGND VGND VPWR VPWR sky130_fd_sc_hd__fill_1
XFILLER_49_74 VGND VGND VPWR VPWR sky130_fd_sc_hd__decap_12
XFILLER_40_32 VGND VGND VPWR VPWR sky130_fd_sc_hd__decap_12
XFILLER_24_44 VGND VGND VPWR VPWR sky130_fd_sc_hd__decap_12
XFILLER_1_59 VGND VGND VPWR VPWR sky130_fd_sc_hd__fill_2
XFILLER_1_15 VGND VGND VPWR VPWR sky130_fd_sc_hd__decap_12
XFILLER_51_123 VGND VGND VPWR VPWR sky130_fd_sc_hd__decap_12