* NGSPICE file created from sb_0__1_.ext - technology: sky130A

* Black-box entry subcircuit for sky130_fd_sc_hd__dfxtp_1 abstract view
.subckt sky130_fd_sc_hd__dfxtp_1 CLK D VGND VNB VPB VPWR Q
.ends

* Black-box entry subcircuit for sky130_fd_sc_hd__fill_2 abstract view
.subckt sky130_fd_sc_hd__fill_2 VGND VNB VPB VPWR
.ends

* Black-box entry subcircuit for sky130_fd_sc_hd__mux2_1 abstract view
.subckt sky130_fd_sc_hd__mux2_1 A0 A1 S VGND VNB VPB VPWR X
.ends

* Black-box entry subcircuit for sky130_fd_sc_hd__decap_3 abstract view
.subckt sky130_fd_sc_hd__decap_3 VGND VNB VPB VPWR
.ends

* Black-box entry subcircuit for sky130_fd_sc_hd__decap_12 abstract view
.subckt sky130_fd_sc_hd__decap_12 VGND VNB VPB VPWR
.ends

* Black-box entry subcircuit for sky130_fd_sc_hd__decap_4 abstract view
.subckt sky130_fd_sc_hd__decap_4 VGND VNB VPB VPWR
.ends

* Black-box entry subcircuit for sky130_fd_sc_hd__diode_2 abstract view
.subckt sky130_fd_sc_hd__diode_2 DIODE VGND VNB VPB VPWR
.ends

* Black-box entry subcircuit for sky130_fd_sc_hd__buf_4 abstract view
.subckt sky130_fd_sc_hd__buf_4 A VGND VNB VPB VPWR X
.ends

* Black-box entry subcircuit for sky130_fd_sc_hd__conb_1 abstract view
.subckt sky130_fd_sc_hd__conb_1 VGND VNB VPB VPWR HI LO
.ends

* Black-box entry subcircuit for sky130_fd_sc_hd__buf_2 abstract view
.subckt sky130_fd_sc_hd__buf_2 A VGND VNB VPB VPWR X
.ends

* Black-box entry subcircuit for sky130_fd_sc_hd__tapvpwrvgnd_1 abstract view
.subckt sky130_fd_sc_hd__tapvpwrvgnd_1 VGND VPWR
.ends

* Black-box entry subcircuit for sky130_fd_sc_hd__clkbuf_1 abstract view
.subckt sky130_fd_sc_hd__clkbuf_1 A VGND VNB VPB VPWR X
.ends

* Black-box entry subcircuit for sky130_fd_sc_hd__fill_1 abstract view
.subckt sky130_fd_sc_hd__fill_1 VGND VNB VPB VPWR
.ends

* Black-box entry subcircuit for sky130_fd_sc_hd__decap_8 abstract view
.subckt sky130_fd_sc_hd__decap_8 VGND VNB VPB VPWR
.ends

* Black-box entry subcircuit for sky130_fd_sc_hd__decap_6 abstract view
.subckt sky130_fd_sc_hd__decap_6 VGND VNB VPB VPWR
.ends

* Black-box entry subcircuit for sky130_fd_sc_hd__buf_8 abstract view
.subckt sky130_fd_sc_hd__buf_8 A VGND VNB VPB VPWR X
.ends

* Black-box entry subcircuit for sky130_fd_sc_hd__clkbuf_16 abstract view
.subckt sky130_fd_sc_hd__clkbuf_16 A VGND VNB VPB VPWR X
.ends

.subckt sb_0__1_ bottom_left_grid_pin_1_ ccff_head ccff_tail chanx_right_in[0] chanx_right_in[10]
+ chanx_right_in[11] chanx_right_in[12] chanx_right_in[13] chanx_right_in[14] chanx_right_in[15]
+ chanx_right_in[16] chanx_right_in[17] chanx_right_in[18] chanx_right_in[19] chanx_right_in[1]
+ chanx_right_in[2] chanx_right_in[3] chanx_right_in[4] chanx_right_in[5] chanx_right_in[6]
+ chanx_right_in[7] chanx_right_in[8] chanx_right_in[9] chanx_right_out[0] chanx_right_out[10]
+ chanx_right_out[11] chanx_right_out[12] chanx_right_out[13] chanx_right_out[14]
+ chanx_right_out[15] chanx_right_out[16] chanx_right_out[17] chanx_right_out[18]
+ chanx_right_out[19] chanx_right_out[1] chanx_right_out[2] chanx_right_out[3] chanx_right_out[4]
+ chanx_right_out[5] chanx_right_out[6] chanx_right_out[7] chanx_right_out[8] chanx_right_out[9]
+ chany_bottom_in[0] chany_bottom_in[10] chany_bottom_in[11] chany_bottom_in[12] chany_bottom_in[13]
+ chany_bottom_in[14] chany_bottom_in[15] chany_bottom_in[16] chany_bottom_in[17]
+ chany_bottom_in[18] chany_bottom_in[19] chany_bottom_in[1] chany_bottom_in[2] chany_bottom_in[3]
+ chany_bottom_in[4] chany_bottom_in[5] chany_bottom_in[6] chany_bottom_in[7] chany_bottom_in[8]
+ chany_bottom_in[9] chany_bottom_out[0] chany_bottom_out[10] chany_bottom_out[11]
+ chany_bottom_out[12] chany_bottom_out[13] chany_bottom_out[14] chany_bottom_out[15]
+ chany_bottom_out[16] chany_bottom_out[17] chany_bottom_out[18] chany_bottom_out[19]
+ chany_bottom_out[1] chany_bottom_out[2] chany_bottom_out[3] chany_bottom_out[4]
+ chany_bottom_out[5] chany_bottom_out[6] chany_bottom_out[7] chany_bottom_out[8]
+ chany_bottom_out[9] chany_top_in[0] chany_top_in[10] chany_top_in[11] chany_top_in[12]
+ chany_top_in[13] chany_top_in[14] chany_top_in[15] chany_top_in[16] chany_top_in[17]
+ chany_top_in[18] chany_top_in[19] chany_top_in[1] chany_top_in[2] chany_top_in[3]
+ chany_top_in[4] chany_top_in[5] chany_top_in[6] chany_top_in[7] chany_top_in[8]
+ chany_top_in[9] chany_top_out[0] chany_top_out[10] chany_top_out[11] chany_top_out[12]
+ chany_top_out[13] chany_top_out[14] chany_top_out[15] chany_top_out[16] chany_top_out[17]
+ chany_top_out[18] chany_top_out[19] chany_top_out[1] chany_top_out[2] chany_top_out[3]
+ chany_top_out[4] chany_top_out[5] chany_top_out[6] chany_top_out[7] chany_top_out[8]
+ chany_top_out[9] prog_clk_0_E_in right_bottom_grid_pin_34_ right_bottom_grid_pin_35_
+ right_bottom_grid_pin_36_ right_bottom_grid_pin_37_ right_bottom_grid_pin_38_ right_bottom_grid_pin_39_
+ right_bottom_grid_pin_40_ right_bottom_grid_pin_41_ top_left_grid_pin_1_ VPWR VGND
Xmem_right_track_20.sky130_fd_sc_hd__dfxtp_1_1_ clkbuf_3_6_0_mem_bottom_track_1.prog_clk/X
+ mux_right_track_20.mux_l1_in_0_/S VGND VGND VPWR VPWR mux_right_track_20.mux_l2_in_0_/S
+ sky130_fd_sc_hd__dfxtp_1
XFILLER_22_133 VGND VGND VPWR VPWR sky130_fd_sc_hd__fill_2
Xmem_right_track_2.sky130_fd_sc_hd__dfxtp_1_0_ clkbuf_3_6_0_mem_bottom_track_1.prog_clk/X
+ mux_right_track_0.mux_l3_in_0_/S VGND VGND VPWR VPWR mux_right_track_2.mux_l1_in_0_/S
+ sky130_fd_sc_hd__dfxtp_1
Xmux_bottom_track_3.mux_l1_in_1_ chanx_right_in[11] chanx_right_in[4] mux_bottom_track_3.mux_l1_in_1_/S
+ VGND VGND VPWR VPWR mux_bottom_track_3.mux_l1_in_1_/X sky130_fd_sc_hd__mux2_1
XFILLER_27_203 VGND VGND VPWR VPWR sky130_fd_sc_hd__decap_3
XFILLER_12_32 VGND VGND VPWR VPWR sky130_fd_sc_hd__decap_12
XFILLER_33_206 VGND VGND VPWR VPWR sky130_fd_sc_hd__decap_4
XANTENNA__124__A chany_bottom_in[17] VGND VGND VPWR VPWR sky130_fd_sc_hd__diode_2
XANTENNA_mux_right_track_4.mux_l1_in_0__A1 chany_top_in[1] VGND VGND VPWR VPWR sky130_fd_sc_hd__diode_2
XANTENNA_mux_top_track_0.mux_l1_in_0__A0 chanx_right_in[1] VGND VGND VPWR VPWR sky130_fd_sc_hd__diode_2
Xmux_right_track_36.sky130_fd_sc_hd__buf_4_0_ mux_right_track_36.mux_l2_in_0_/X VGND
+ VGND VPWR VPWR _084_/A sky130_fd_sc_hd__buf_4
XFILLER_23_97 VGND VGND VPWR VPWR sky130_fd_sc_hd__decap_3
X_062_ VGND VGND VPWR VPWR _062_/HI _062_/LO sky130_fd_sc_hd__conb_1
XFILLER_2_165 VGND VGND VPWR VPWR sky130_fd_sc_hd__decap_4
XFILLER_0_79 VGND VGND VPWR VPWR sky130_fd_sc_hd__fill_2
Xmem_right_track_8.sky130_fd_sc_hd__dfxtp_1_1_ clkbuf_3_5_0_mem_bottom_track_1.prog_clk/X
+ mux_right_track_8.mux_l1_in_0_/S VGND VGND VPWR VPWR mux_right_track_8.mux_l2_in_1_/S
+ sky130_fd_sc_hd__dfxtp_1
XANTENNA__119__A chany_bottom_in[12] VGND VGND VPWR VPWR sky130_fd_sc_hd__diode_2
XFILLER_9_77 VGND VGND VPWR VPWR sky130_fd_sc_hd__fill_2
XANTENNA_mux_right_track_2.mux_l1_in_2__A1 right_bottom_grid_pin_39_ VGND VGND VPWR
+ VPWR sky130_fd_sc_hd__diode_2
X_045_ VGND VGND VPWR VPWR _045_/HI _045_/LO sky130_fd_sc_hd__conb_1
X_114_ _114_/A VGND VGND VPWR VPWR chany_top_out[8] sky130_fd_sc_hd__buf_2
Xmem_bottom_track_25.sky130_fd_sc_hd__dfxtp_1_2_ clkbuf_3_2_0_mem_bottom_track_1.prog_clk/X
+ mux_bottom_track_25.mux_l2_in_1_/S VGND VGND VPWR VPWR mux_bottom_track_25.mux_l3_in_0_/S
+ sky130_fd_sc_hd__dfxtp_1
Xmux_bottom_track_17.mux_l1_in_0_ chany_top_in[17] chany_top_in[8] mux_bottom_track_17.mux_l1_in_0_/S
+ VGND VGND VPWR VPWR mux_bottom_track_17.mux_l1_in_0_/X sky130_fd_sc_hd__mux2_1
XFILLER_20_32 VGND VGND VPWR VPWR sky130_fd_sc_hd__decap_12
XFILLER_6_78 VGND VGND VPWR VPWR sky130_fd_sc_hd__fill_2
XFILLER_6_56 VGND VGND VPWR VPWR sky130_fd_sc_hd__fill_2
XFILLER_13_3 VGND VGND VPWR VPWR sky130_fd_sc_hd__decap_12
XFILLER_1_219 VGND VGND VPWR VPWR sky130_fd_sc_hd__decap_4
XFILLER_25_120 VGND VGND VPWR VPWR sky130_fd_sc_hd__fill_2
Xmux_bottom_track_3.sky130_fd_sc_hd__buf_4_0_ mux_bottom_track_3.mux_l3_in_0_/X VGND
+ VGND VPWR VPWR _087_/A sky130_fd_sc_hd__buf_4
XANTENNA_mux_bottom_track_3.mux_l1_in_1__A0 chanx_right_in[11] VGND VGND VPWR VPWR
+ sky130_fd_sc_hd__diode_2
XPHY_170 VGND VPWR sky130_fd_sc_hd__tapvpwrvgnd_1
XPHY_192 VGND VPWR sky130_fd_sc_hd__tapvpwrvgnd_1
XPHY_181 VGND VPWR sky130_fd_sc_hd__tapvpwrvgnd_1
XFILLER_31_178 VGND VGND VPWR VPWR sky130_fd_sc_hd__decap_4
Xmem_right_track_20.sky130_fd_sc_hd__dfxtp_1_0_ clkbuf_3_7_0_mem_bottom_track_1.prog_clk/X
+ mux_right_track_18.mux_l2_in_0_/S VGND VGND VPWR VPWR mux_right_track_20.mux_l1_in_0_/S
+ sky130_fd_sc_hd__dfxtp_1
XFILLER_13_145 VGND VGND VPWR VPWR sky130_fd_sc_hd__fill_2
XFILLER_13_156 VGND VGND VPWR VPWR sky130_fd_sc_hd__fill_2
XFILLER_26_53 VGND VGND VPWR VPWR sky130_fd_sc_hd__fill_2
Xmux_bottom_track_3.mux_l1_in_0_ chany_top_in[13] chany_top_in[4] mux_bottom_track_3.mux_l1_in_1_/S
+ VGND VGND VPWR VPWR mux_bottom_track_3.mux_l1_in_0_/X sky130_fd_sc_hd__mux2_1
XFILLER_8_160 VGND VGND VPWR VPWR sky130_fd_sc_hd__decap_3
Xclkbuf_1_0_0_mem_bottom_track_1.prog_clk clkbuf_0_mem_bottom_track_1.prog_clk/X VGND
+ VGND VPWR VPWR clkbuf_1_0_0_mem_bottom_track_1.prog_clk/X sky130_fd_sc_hd__clkbuf_1
XFILLER_10_137 VGND VGND VPWR VPWR sky130_fd_sc_hd__decap_4
XFILLER_12_44 VGND VGND VPWR VPWR sky130_fd_sc_hd__decap_12
XFILLER_12_99 VGND VGND VPWR VPWR sky130_fd_sc_hd__fill_2
XANTENNA_mux_right_track_10.mux_l2_in_0__A0 right_bottom_grid_pin_35_ VGND VGND VPWR
+ VPWR sky130_fd_sc_hd__diode_2
XANTENNA_mux_top_track_0.mux_l1_in_0__A1 top_left_grid_pin_1_ VGND VGND VPWR VPWR
+ sky130_fd_sc_hd__diode_2
Xmem_right_track_26.sky130_fd_sc_hd__dfxtp_1_1_ clkbuf_3_4_0_mem_bottom_track_1.prog_clk/X
+ mux_right_track_26.mux_l1_in_0_/S VGND VGND VPWR VPWR mux_right_track_26.mux_l2_in_0_/S
+ sky130_fd_sc_hd__dfxtp_1
X_061_ VGND VGND VPWR VPWR _061_/HI _061_/LO sky130_fd_sc_hd__conb_1
XFILLER_23_65 VGND VGND VPWR VPWR sky130_fd_sc_hd__decap_3
Xmem_right_track_8.sky130_fd_sc_hd__dfxtp_1_0_ clkbuf_3_5_0_mem_bottom_track_1.prog_clk/X
+ mux_right_track_6.mux_l3_in_0_/S VGND VGND VPWR VPWR mux_right_track_8.mux_l1_in_0_/S
+ sky130_fd_sc_hd__dfxtp_1
XFILLER_20_221 VGND VGND VPWR VPWR sky130_fd_sc_hd__fill_2
XFILLER_18_32 VGND VGND VPWR VPWR sky130_fd_sc_hd__decap_12
X_113_ chany_bottom_in[6] VGND VGND VPWR VPWR chany_top_out[7] sky130_fd_sc_hd__buf_2
X_044_ VGND VGND VPWR VPWR _044_/HI _044_/LO sky130_fd_sc_hd__conb_1
Xmem_bottom_track_25.sky130_fd_sc_hd__dfxtp_1_1_ clkbuf_3_2_0_mem_bottom_track_1.prog_clk/X
+ mux_bottom_track_25.mux_l1_in_1_/S VGND VGND VPWR VPWR mux_bottom_track_25.mux_l2_in_1_/S
+ sky130_fd_sc_hd__dfxtp_1
XFILLER_20_44 VGND VGND VPWR VPWR sky130_fd_sc_hd__decap_12
XFILLER_20_66 VGND VGND VPWR VPWR sky130_fd_sc_hd__fill_2
XANTENNA_mem_top_track_0.sky130_fd_sc_hd__dfxtp_1_0__D ccff_head VGND VGND VPWR VPWR
+ sky130_fd_sc_hd__diode_2
XFILLER_28_151 VGND VGND VPWR VPWR sky130_fd_sc_hd__fill_2
XFILLER_19_140 VGND VGND VPWR VPWR sky130_fd_sc_hd__fill_2
XFILLER_19_151 VGND VGND VPWR VPWR sky130_fd_sc_hd__fill_2
XFILLER_25_132 VGND VGND VPWR VPWR sky130_fd_sc_hd__fill_2
XFILLER_0_220 VGND VGND VPWR VPWR sky130_fd_sc_hd__decap_3
XFILLER_31_87 VGND VGND VPWR VPWR sky130_fd_sc_hd__fill_2
XANTENNA_mux_bottom_track_3.mux_l1_in_1__A1 chanx_right_in[4] VGND VGND VPWR VPWR
+ sky130_fd_sc_hd__diode_2
XPHY_193 VGND VPWR sky130_fd_sc_hd__tapvpwrvgnd_1
XPHY_160 VGND VPWR sky130_fd_sc_hd__tapvpwrvgnd_1
XPHY_171 VGND VPWR sky130_fd_sc_hd__tapvpwrvgnd_1
XFILLER_31_157 VGND VGND VPWR VPWR sky130_fd_sc_hd__fill_2
XPHY_182 VGND VPWR sky130_fd_sc_hd__tapvpwrvgnd_1
XFILLER_31_168 VGND VGND VPWR VPWR sky130_fd_sc_hd__decap_4
Xmem_bottom_track_3.sky130_fd_sc_hd__dfxtp_1_2_ clkbuf_3_1_0_mem_bottom_track_1.prog_clk/X
+ mux_bottom_track_3.mux_l2_in_1_/S VGND VGND VPWR VPWR mux_bottom_track_3.mux_l3_in_0_/S
+ sky130_fd_sc_hd__dfxtp_1
XANTENNA_mux_right_track_6.mux_l1_in_1__A0 right_bottom_grid_pin_37_ VGND VGND VPWR
+ VPWR sky130_fd_sc_hd__diode_2
XFILLER_30_190 VGND VGND VPWR VPWR sky130_fd_sc_hd__fill_2
XFILLER_26_32 VGND VGND VPWR VPWR sky130_fd_sc_hd__decap_12
XFILLER_26_65 VGND VGND VPWR VPWR sky130_fd_sc_hd__fill_2
XFILLER_26_87 VGND VGND VPWR VPWR sky130_fd_sc_hd__fill_1
XFILLER_26_98 VGND VGND VPWR VPWR sky130_fd_sc_hd__fill_2
Xclkbuf_3_4_0_mem_bottom_track_1.prog_clk clkbuf_3_5_0_mem_bottom_track_1.prog_clk/A
+ VGND VGND VPWR VPWR clkbuf_3_4_0_mem_bottom_track_1.prog_clk/X sky130_fd_sc_hd__clkbuf_1
XFILLER_8_150 VGND VGND VPWR VPWR sky130_fd_sc_hd__decap_3
XFILLER_8_172 VGND VGND VPWR VPWR sky130_fd_sc_hd__fill_2
XFILLER_12_190 VGND VGND VPWR VPWR sky130_fd_sc_hd__fill_2
XFILLER_8_194 VGND VGND VPWR VPWR sky130_fd_sc_hd__fill_2
XFILLER_12_56 VGND VGND VPWR VPWR sky130_fd_sc_hd__decap_12
XFILLER_24_219 VGND VGND VPWR VPWR sky130_fd_sc_hd__decap_4
XFILLER_4_90 VGND VGND VPWR VPWR sky130_fd_sc_hd__fill_2
Xmux_right_track_10.mux_l3_in_0_ mux_right_track_10.mux_l2_in_1_/X mux_right_track_10.mux_l2_in_0_/X
+ mux_right_track_10.mux_l3_in_0_/S VGND VGND VPWR VPWR mux_right_track_10.mux_l3_in_0_/X
+ sky130_fd_sc_hd__mux2_1
Xmem_right_track_26.sky130_fd_sc_hd__dfxtp_1_0_ clkbuf_3_4_0_mem_bottom_track_1.prog_clk/X
+ mux_right_track_24.mux_l3_in_0_/S VGND VGND VPWR VPWR mux_right_track_26.mux_l1_in_0_/S
+ sky130_fd_sc_hd__dfxtp_1
X_060_ VGND VGND VPWR VPWR _060_/HI _060_/LO sky130_fd_sc_hd__conb_1
XFILLER_3_3 VGND VGND VPWR VPWR sky130_fd_sc_hd__decap_12
XFILLER_0_15 VGND VGND VPWR VPWR sky130_fd_sc_hd__decap_12
XFILLER_18_44 VGND VGND VPWR VPWR sky130_fd_sc_hd__decap_12
XFILLER_18_77 VGND VGND VPWR VPWR sky130_fd_sc_hd__fill_2
X_112_ chany_bottom_in[5] VGND VGND VPWR VPWR chany_top_out[6] sky130_fd_sc_hd__buf_2
X_043_ VGND VGND VPWR VPWR _043_/HI _043_/LO sky130_fd_sc_hd__conb_1
XFILLER_11_200 VGND VGND VPWR VPWR sky130_fd_sc_hd__fill_2
XFILLER_11_222 VGND VGND VPWR VPWR sky130_fd_sc_hd__fill_1
Xmux_right_track_10.mux_l2_in_1_ _062_/HI chany_bottom_in[9] mux_right_track_10.mux_l2_in_0_/S
+ VGND VGND VPWR VPWR mux_right_track_10.mux_l2_in_1_/X sky130_fd_sc_hd__mux2_1
Xmem_bottom_track_25.sky130_fd_sc_hd__dfxtp_1_0_ clkbuf_3_2_0_mem_bottom_track_1.prog_clk/X
+ mux_bottom_track_17.mux_l3_in_0_/S VGND VGND VPWR VPWR mux_bottom_track_25.mux_l1_in_1_/S
+ sky130_fd_sc_hd__dfxtp_1
XFILLER_29_108 VGND VGND VPWR VPWR sky130_fd_sc_hd__fill_2
XFILLER_20_56 VGND VGND VPWR VPWR sky130_fd_sc_hd__decap_8
XFILLER_20_78 VGND VGND VPWR VPWR sky130_fd_sc_hd__fill_2
XFILLER_29_98 VGND VGND VPWR VPWR sky130_fd_sc_hd__fill_2
XFILLER_28_196 VGND VGND VPWR VPWR sky130_fd_sc_hd__fill_2
Xmem_top_track_16.sky130_fd_sc_hd__dfxtp_1_2_ clkbuf_3_3_0_mem_bottom_track_1.prog_clk/X
+ mux_top_track_16.mux_l2_in_1_/S VGND VGND VPWR VPWR mux_top_track_16.mux_l3_in_0_/S
+ sky130_fd_sc_hd__dfxtp_1
XFILLER_16_111 VGND VGND VPWR VPWR sky130_fd_sc_hd__fill_2
XFILLER_16_177 VGND VGND VPWR VPWR sky130_fd_sc_hd__fill_2
XPHY_150 VGND VPWR sky130_fd_sc_hd__tapvpwrvgnd_1
XPHY_161 VGND VPWR sky130_fd_sc_hd__tapvpwrvgnd_1
XPHY_172 VGND VPWR sky130_fd_sc_hd__tapvpwrvgnd_1
XPHY_183 VGND VPWR sky130_fd_sc_hd__tapvpwrvgnd_1
XFILLER_7_90 VGND VGND VPWR VPWR sky130_fd_sc_hd__fill_2
Xmem_bottom_track_3.sky130_fd_sc_hd__dfxtp_1_1_ clkbuf_3_1_0_mem_bottom_track_1.prog_clk/X
+ mux_bottom_track_3.mux_l1_in_1_/S VGND VGND VPWR VPWR mux_bottom_track_3.mux_l2_in_1_/S
+ sky130_fd_sc_hd__dfxtp_1
XANTENNA_mux_right_track_6.mux_l1_in_1__A1 right_bottom_grid_pin_35_ VGND VGND VPWR
+ VPWR sky130_fd_sc_hd__diode_2
XANTENNA_mux_top_track_2.mux_l1_in_1__A0 chany_bottom_in[4] VGND VGND VPWR VPWR sky130_fd_sc_hd__diode_2
XFILLER_26_44 VGND VGND VPWR VPWR sky130_fd_sc_hd__decap_6
XFILLER_9_129 VGND VGND VPWR VPWR sky130_fd_sc_hd__fill_1
XFILLER_13_125 VGND VGND VPWR VPWR sky130_fd_sc_hd__fill_2
XFILLER_3_59 VGND VGND VPWR VPWR sky130_fd_sc_hd__fill_2
XFILLER_3_15 VGND VGND VPWR VPWR sky130_fd_sc_hd__decap_12
XFILLER_10_106 VGND VGND VPWR VPWR sky130_fd_sc_hd__fill_2
XFILLER_10_117 VGND VGND VPWR VPWR sky130_fd_sc_hd__decap_4
XFILLER_12_68 VGND VGND VPWR VPWR sky130_fd_sc_hd__decap_12
XANTENNA_mux_right_track_4.mux_l1_in_3__A1 chany_bottom_in[5] VGND VGND VPWR VPWR
+ sky130_fd_sc_hd__diode_2
XFILLER_5_143 VGND VGND VPWR VPWR sky130_fd_sc_hd__fill_2
XFILLER_23_78 VGND VGND VPWR VPWR sky130_fd_sc_hd__fill_2
XFILLER_23_89 VGND VGND VPWR VPWR sky130_fd_sc_hd__fill_2
XFILLER_2_157 VGND VGND VPWR VPWR sky130_fd_sc_hd__fill_2
XFILLER_2_135 VGND VGND VPWR VPWR sky130_fd_sc_hd__decap_3
Xprog_clk_0_FTB00 prog_clk_0_E_in VGND VGND VPWR VPWR prog_clk_0_FTB00/X sky130_fd_sc_hd__buf_8
XANTENNA_mux_right_track_14.mux_l1_in_0__A0 chany_top_in[19] VGND VGND VPWR VPWR sky130_fd_sc_hd__diode_2
Xmem_bottom_track_9.sky130_fd_sc_hd__dfxtp_1_2_ clkbuf_3_0_0_mem_bottom_track_1.prog_clk/X
+ mux_bottom_track_9.mux_l2_in_0_/S VGND VGND VPWR VPWR mux_bottom_track_9.mux_l3_in_0_/S
+ sky130_fd_sc_hd__dfxtp_1
XFILLER_0_27 VGND VGND VPWR VPWR sky130_fd_sc_hd__decap_4
XFILLER_29_3 VGND VGND VPWR VPWR sky130_fd_sc_hd__decap_12
XFILLER_20_212 VGND VGND VPWR VPWR sky130_fd_sc_hd__fill_2
XFILLER_18_56 VGND VGND VPWR VPWR sky130_fd_sc_hd__decap_12
X_111_ chany_bottom_in[4] VGND VGND VPWR VPWR chany_top_out[5] sky130_fd_sc_hd__buf_2
X_042_ VGND VGND VPWR VPWR _042_/HI _042_/LO sky130_fd_sc_hd__conb_1
XANTENNA_mux_bottom_track_5.mux_l1_in_2__A0 bottom_left_grid_pin_1_ VGND VGND VPWR
+ VPWR sky130_fd_sc_hd__diode_2
Xmux_right_track_10.mux_l2_in_0_ right_bottom_grid_pin_35_ mux_right_track_10.mux_l1_in_0_/X
+ mux_right_track_10.mux_l2_in_0_/S VGND VGND VPWR VPWR mux_right_track_10.mux_l2_in_0_/X
+ sky130_fd_sc_hd__mux2_1
Xmux_right_track_8.mux_l3_in_0_ mux_right_track_8.mux_l2_in_1_/X mux_right_track_8.mux_l2_in_0_/X
+ mux_right_track_8.mux_l3_in_0_/S VGND VGND VPWR VPWR mux_right_track_8.mux_l3_in_0_/X
+ sky130_fd_sc_hd__mux2_1
Xmux_top_track_0.mux_l3_in_0_ mux_top_track_0.mux_l2_in_1_/X mux_top_track_0.mux_l2_in_0_/X
+ mux_top_track_0.mux_l3_in_0_/S VGND VGND VPWR VPWR mux_top_track_0.mux_l3_in_0_/X
+ sky130_fd_sc_hd__mux2_1
XFILLER_4_219 VGND VGND VPWR VPWR sky130_fd_sc_hd__decap_4
XFILLER_28_131 VGND VGND VPWR VPWR sky130_fd_sc_hd__fill_2
XFILLER_28_142 VGND VGND VPWR VPWR sky130_fd_sc_hd__decap_4
XFILLER_6_15 VGND VGND VPWR VPWR sky130_fd_sc_hd__decap_12
XFILLER_10_90 VGND VGND VPWR VPWR sky130_fd_sc_hd__fill_2
Xmem_top_track_16.sky130_fd_sc_hd__dfxtp_1_1_ clkbuf_3_3_0_mem_bottom_track_1.prog_clk/X
+ mux_top_track_16.mux_l1_in_1_/S VGND VGND VPWR VPWR mux_top_track_16.mux_l2_in_1_/S
+ sky130_fd_sc_hd__dfxtp_1
XFILLER_25_189 VGND VGND VPWR VPWR sky130_fd_sc_hd__fill_2
Xmem_right_track_12.sky130_fd_sc_hd__dfxtp_1_2_ clkbuf_3_5_0_mem_bottom_track_1.prog_clk/X
+ mux_right_track_12.mux_l2_in_1_/S VGND VGND VPWR VPWR mux_right_track_12.mux_l3_in_0_/S
+ sky130_fd_sc_hd__dfxtp_1
Xmux_right_track_8.mux_l2_in_1_ _046_/HI chany_bottom_in[8] mux_right_track_8.mux_l2_in_1_/S
+ VGND VGND VPWR VPWR mux_right_track_8.mux_l2_in_1_/X sky130_fd_sc_hd__mux2_1
XFILLER_31_115 VGND VGND VPWR VPWR sky130_fd_sc_hd__fill_2
XPHY_140 VGND VPWR sky130_fd_sc_hd__tapvpwrvgnd_1
XPHY_151 VGND VPWR sky130_fd_sc_hd__tapvpwrvgnd_1
XPHY_162 VGND VPWR sky130_fd_sc_hd__tapvpwrvgnd_1
XPHY_173 VGND VPWR sky130_fd_sc_hd__tapvpwrvgnd_1
XPHY_184 VGND VPWR sky130_fd_sc_hd__tapvpwrvgnd_1
Xmux_top_track_0.mux_l2_in_1_ _047_/HI mux_top_track_0.mux_l1_in_2_/X mux_top_track_0.mux_l2_in_0_/S
+ VGND VGND VPWR VPWR mux_top_track_0.mux_l2_in_1_/X sky130_fd_sc_hd__mux2_1
XFILLER_11_3 VGND VGND VPWR VPWR sky130_fd_sc_hd__decap_12
Xmem_bottom_track_3.sky130_fd_sc_hd__dfxtp_1_0_ clkbuf_3_2_0_mem_bottom_track_1.prog_clk/X
+ mux_bottom_track_1.mux_l3_in_0_/S VGND VGND VPWR VPWR mux_bottom_track_3.mux_l1_in_1_/S
+ sky130_fd_sc_hd__dfxtp_1
XANTENNA_mux_top_track_2.mux_l1_in_1__A1 chanx_right_in[16] VGND VGND VPWR VPWR sky130_fd_sc_hd__diode_2
XFILLER_13_104 VGND VGND VPWR VPWR sky130_fd_sc_hd__fill_2
XFILLER_13_115 VGND VGND VPWR VPWR sky130_fd_sc_hd__fill_2
XFILLER_9_119 VGND VGND VPWR VPWR sky130_fd_sc_hd__decap_3
XFILLER_21_181 VGND VGND VPWR VPWR sky130_fd_sc_hd__fill_2
XFILLER_3_27 VGND VGND VPWR VPWR sky130_fd_sc_hd__decap_12
XANTENNA_mux_right_track_22.mux_l1_in_0__A0 right_bottom_grid_pin_41_ VGND VGND VPWR
+ VPWR sky130_fd_sc_hd__diode_2
Xmux_top_track_0.mux_l1_in_2_ chany_bottom_in[12] chany_bottom_in[2] mux_top_track_0.mux_l1_in_0_/S
+ VGND VGND VPWR VPWR mux_top_track_0.mux_l1_in_2_/X sky130_fd_sc_hd__mux2_1
XFILLER_32_221 VGND VGND VPWR VPWR sky130_fd_sc_hd__fill_2
Xmux_top_track_16.sky130_fd_sc_hd__buf_4_0_ mux_top_track_16.mux_l3_in_0_/X VGND VGND
+ VPWR VPWR _114_/A sky130_fd_sc_hd__buf_4
XFILLER_23_221 VGND VGND VPWR VPWR sky130_fd_sc_hd__fill_2
Xmem_bottom_track_9.sky130_fd_sc_hd__dfxtp_1_1_ clkbuf_3_0_0_mem_bottom_track_1.prog_clk/X
+ mux_bottom_track_9.mux_l1_in_1_/S VGND VGND VPWR VPWR mux_bottom_track_9.mux_l2_in_0_/S
+ sky130_fd_sc_hd__dfxtp_1
XFILLER_2_114 VGND VGND VPWR VPWR sky130_fd_sc_hd__decap_4
XFILLER_2_103 VGND VGND VPWR VPWR sky130_fd_sc_hd__fill_2
XANTENNA_mux_right_track_14.mux_l1_in_0__A1 chany_top_in[12] VGND VGND VPWR VPWR sky130_fd_sc_hd__diode_2
XFILLER_9_15 VGND VGND VPWR VPWR sky130_fd_sc_hd__decap_12
XFILLER_9_59 VGND VGND VPWR VPWR sky130_fd_sc_hd__fill_2
XFILLER_14_221 VGND VGND VPWR VPWR sky130_fd_sc_hd__fill_2
XFILLER_18_68 VGND VGND VPWR VPWR sky130_fd_sc_hd__decap_6
X_110_ _110_/A VGND VGND VPWR VPWR chany_top_out[4] sky130_fd_sc_hd__buf_2
X_041_ VGND VGND VPWR VPWR _041_/HI _041_/LO sky130_fd_sc_hd__conb_1
XANTENNA_mux_bottom_track_5.mux_l1_in_2__A1 chanx_right_in[17] VGND VGND VPWR VPWR
+ sky130_fd_sc_hd__diode_2
XFILLER_1_82 VGND VGND VPWR VPWR sky130_fd_sc_hd__fill_1
XFILLER_1_93 VGND VGND VPWR VPWR sky130_fd_sc_hd__fill_2
XFILLER_29_67 VGND VGND VPWR VPWR sky130_fd_sc_hd__fill_2
XFILLER_29_78 VGND VGND VPWR VPWR sky130_fd_sc_hd__decap_4
XFILLER_6_27 VGND VGND VPWR VPWR sky130_fd_sc_hd__decap_4
Xmem_top_track_16.sky130_fd_sc_hd__dfxtp_1_0_ clkbuf_3_3_0_mem_bottom_track_1.prog_clk/X
+ mux_top_track_8.mux_l3_in_0_/S VGND VGND VPWR VPWR mux_top_track_16.mux_l1_in_1_/S
+ sky130_fd_sc_hd__dfxtp_1
XFILLER_19_121 VGND VGND VPWR VPWR sky130_fd_sc_hd__fill_1
XFILLER_19_187 VGND VGND VPWR VPWR sky130_fd_sc_hd__decap_4
Xmux_top_track_0.sky130_fd_sc_hd__buf_4_0_ mux_top_track_0.mux_l3_in_0_/X VGND VGND
+ VPWR VPWR _106_/A sky130_fd_sc_hd__buf_4
XANTENNA_mux_right_track_12.mux_l2_in_1__A1 chany_bottom_in[10] VGND VGND VPWR VPWR
+ sky130_fd_sc_hd__diode_2
XFILLER_31_79 VGND VGND VPWR VPWR sky130_fd_sc_hd__fill_2
Xmem_right_track_12.sky130_fd_sc_hd__dfxtp_1_1_ clkbuf_3_5_0_mem_bottom_track_1.prog_clk/X
+ mux_right_track_12.mux_l1_in_0_/S VGND VGND VPWR VPWR mux_right_track_12.mux_l2_in_1_/S
+ sky130_fd_sc_hd__dfxtp_1
Xmux_right_track_10.mux_l1_in_0_ chany_top_in[11] chany_top_in[9] mux_right_track_10.mux_l1_in_0_/S
+ VGND VGND VPWR VPWR mux_right_track_10.mux_l1_in_0_/X sky130_fd_sc_hd__mux2_1
XFILLER_16_102 VGND VGND VPWR VPWR sky130_fd_sc_hd__fill_2
XFILLER_16_157 VGND VGND VPWR VPWR sky130_fd_sc_hd__decap_4
XPHY_130 VGND VPWR sky130_fd_sc_hd__tapvpwrvgnd_1
XPHY_141 VGND VPWR sky130_fd_sc_hd__tapvpwrvgnd_1
XPHY_152 VGND VPWR sky130_fd_sc_hd__tapvpwrvgnd_1
Xmux_right_track_8.mux_l2_in_0_ right_bottom_grid_pin_34_ mux_right_track_8.mux_l1_in_0_/X
+ mux_right_track_8.mux_l2_in_1_/S VGND VGND VPWR VPWR mux_right_track_8.mux_l2_in_0_/X
+ sky130_fd_sc_hd__mux2_1
XPHY_163 VGND VPWR sky130_fd_sc_hd__tapvpwrvgnd_1
XPHY_174 VGND VPWR sky130_fd_sc_hd__tapvpwrvgnd_1
XPHY_185 VGND VPWR sky130_fd_sc_hd__tapvpwrvgnd_1
Xmux_top_track_0.mux_l2_in_0_ mux_top_track_0.mux_l1_in_1_/X mux_top_track_0.mux_l1_in_0_/X
+ mux_top_track_0.mux_l2_in_0_/S VGND VGND VPWR VPWR mux_top_track_0.mux_l2_in_0_/X
+ sky130_fd_sc_hd__mux2_1
XANTENNA_mux_right_track_30.mux_l1_in_0__A0 chany_bottom_in[7] VGND VGND VPWR VPWR
+ sky130_fd_sc_hd__diode_2
Xmux_right_track_22.mux_l2_in_0_ mux_right_track_22.mux_l1_in_1_/X mux_right_track_22.mux_l1_in_0_/X
+ mux_right_track_22.mux_l2_in_0_/S VGND VGND VPWR VPWR mux_right_track_22.mux_l2_in_0_/X
+ sky130_fd_sc_hd__mux2_1
XFILLER_26_57 VGND VGND VPWR VPWR sky130_fd_sc_hd__fill_2
XFILLER_21_193 VGND VGND VPWR VPWR sky130_fd_sc_hd__decap_4
XFILLER_3_39 VGND VGND VPWR VPWR sky130_fd_sc_hd__decap_12
XFILLER_16_90 VGND VGND VPWR VPWR sky130_fd_sc_hd__fill_2
XFILLER_12_15 VGND VGND VPWR VPWR sky130_fd_sc_hd__decap_12
XANTENNA_mux_right_track_22.mux_l1_in_0__A1 chany_top_in[17] VGND VGND VPWR VPWR sky130_fd_sc_hd__diode_2
XFILLER_18_219 VGND VGND VPWR VPWR sky130_fd_sc_hd__decap_4
Xmux_top_track_0.mux_l1_in_1_ chanx_right_in[15] chanx_right_in[8] mux_top_track_0.mux_l1_in_0_/S
+ VGND VGND VPWR VPWR mux_top_track_0.mux_l1_in_1_/X sky130_fd_sc_hd__mux2_1
Xmux_right_track_22.mux_l1_in_1_ _036_/HI chany_bottom_in[17] mux_right_track_22.mux_l1_in_0_/S
+ VGND VGND VPWR VPWR mux_right_track_22.mux_l1_in_1_/X sky130_fd_sc_hd__mux2_1
XANTENNA_mux_bottom_track_17.mux_l1_in_0__A0 chany_top_in[17] VGND VGND VPWR VPWR
+ sky130_fd_sc_hd__diode_2
XFILLER_32_200 VGND VGND VPWR VPWR sky130_fd_sc_hd__fill_2
XFILLER_4_82 VGND VGND VPWR VPWR sky130_fd_sc_hd__fill_2
XANTENNA__091__A chany_top_in[4] VGND VGND VPWR VPWR sky130_fd_sc_hd__diode_2
Xmem_bottom_track_9.sky130_fd_sc_hd__dfxtp_1_0_ clkbuf_3_0_0_mem_bottom_track_1.prog_clk/X
+ mux_bottom_track_5.mux_l3_in_0_/S VGND VGND VPWR VPWR mux_bottom_track_9.mux_l1_in_1_/S
+ sky130_fd_sc_hd__dfxtp_1
XFILLER_14_211 VGND VGND VPWR VPWR sky130_fd_sc_hd__decap_3
XFILLER_9_27 VGND VGND VPWR VPWR sky130_fd_sc_hd__decap_12
Xmem_bottom_track_17.sky130_fd_sc_hd__dfxtp_1_2_ clkbuf_3_2_0_mem_bottom_track_1.prog_clk/X
+ mux_bottom_track_17.mux_l2_in_0_/S VGND VGND VPWR VPWR mux_bottom_track_17.mux_l3_in_0_/S
+ sky130_fd_sc_hd__dfxtp_1
X_040_ VGND VGND VPWR VPWR _040_/HI _040_/LO sky130_fd_sc_hd__conb_1
XFILLER_1_3 VGND VGND VPWR VPWR sky130_fd_sc_hd__decap_12
Xmux_right_track_10.sky130_fd_sc_hd__buf_4_0_ mux_right_track_10.mux_l3_in_0_/X VGND
+ VGND VPWR VPWR _071_/A sky130_fd_sc_hd__buf_4
XANTENNA_mux_top_track_4.mux_l1_in_2__A0 chany_bottom_in[14] VGND VGND VPWR VPWR sky130_fd_sc_hd__diode_2
XFILLER_20_15 VGND VGND VPWR VPWR sky130_fd_sc_hd__decap_12
XFILLER_3_221 VGND VGND VPWR VPWR sky130_fd_sc_hd__fill_2
XFILLER_15_15 VGND VGND VPWR VPWR sky130_fd_sc_hd__decap_12
XFILLER_25_114 VGND VGND VPWR VPWR sky130_fd_sc_hd__decap_4
XFILLER_15_59 VGND VGND VPWR VPWR sky130_fd_sc_hd__fill_2
Xmem_right_track_12.sky130_fd_sc_hd__dfxtp_1_0_ clkbuf_3_5_0_mem_bottom_track_1.prog_clk/X
+ mux_right_track_10.mux_l3_in_0_/S VGND VGND VPWR VPWR mux_right_track_12.mux_l1_in_0_/S
+ sky130_fd_sc_hd__dfxtp_1
XPHY_120 VGND VPWR sky130_fd_sc_hd__tapvpwrvgnd_1
XPHY_131 VGND VPWR sky130_fd_sc_hd__tapvpwrvgnd_1
XPHY_142 VGND VPWR sky130_fd_sc_hd__tapvpwrvgnd_1
XANTENNA_mux_right_track_8.mux_l2_in_1__A1 chany_bottom_in[8] VGND VGND VPWR VPWR
+ sky130_fd_sc_hd__diode_2
XPHY_153 VGND VPWR sky130_fd_sc_hd__tapvpwrvgnd_1
XPHY_164 VGND VPWR sky130_fd_sc_hd__tapvpwrvgnd_1
XPHY_175 VGND VPWR sky130_fd_sc_hd__tapvpwrvgnd_1
XFILLER_31_139 VGND VGND VPWR VPWR sky130_fd_sc_hd__fill_2
XFILLER_21_80 VGND VGND VPWR VPWR sky130_fd_sc_hd__fill_2
XPHY_186 VGND VPWR sky130_fd_sc_hd__tapvpwrvgnd_1
XPHY_0 VGND VGND VPWR VPWR sky130_fd_sc_hd__decap_3
XANTENNA_mux_right_track_30.mux_l1_in_0__A1 right_bottom_grid_pin_37_ VGND VGND VPWR
+ VPWR sky130_fd_sc_hd__diode_2
XFILLER_30_172 VGND VGND VPWR VPWR sky130_fd_sc_hd__fill_2
XANTENNA_mux_bottom_track_9.mux_l1_in_1__A0 chanx_right_in[9] VGND VGND VPWR VPWR
+ sky130_fd_sc_hd__diode_2
Xmux_bottom_track_33.sky130_fd_sc_hd__buf_4_0_ mux_bottom_track_33.mux_l2_in_0_/X
+ VGND VGND VPWR VPWR _102_/A sky130_fd_sc_hd__buf_4
XANTENNA_mux_bottom_track_25.mux_l1_in_0__A0 chany_top_in[18] VGND VGND VPWR VPWR
+ sky130_fd_sc_hd__diode_2
XFILLER_21_150 VGND VGND VPWR VPWR sky130_fd_sc_hd__decap_3
XFILLER_12_172 VGND VGND VPWR VPWR sky130_fd_sc_hd__fill_2
XFILLER_16_80 VGND VGND VPWR VPWR sky130_fd_sc_hd__decap_4
XFILLER_32_90 VGND VGND VPWR VPWR sky130_fd_sc_hd__fill_2
Xmux_bottom_track_25.mux_l3_in_0_ mux_bottom_track_25.mux_l2_in_1_/X mux_bottom_track_25.mux_l2_in_0_/X
+ mux_bottom_track_25.mux_l3_in_0_/S VGND VGND VPWR VPWR mux_bottom_track_25.mux_l3_in_0_/X
+ sky130_fd_sc_hd__mux2_1
XFILLER_12_27 VGND VGND VPWR VPWR sky130_fd_sc_hd__decap_4
Xmux_right_track_8.mux_l1_in_0_ chany_top_in[8] chany_top_in[7] mux_right_track_8.mux_l1_in_0_/S
+ VGND VGND VPWR VPWR mux_right_track_8.mux_l1_in_0_/X sky130_fd_sc_hd__mux2_1
XANTENNA__089__A chany_top_in[2] VGND VGND VPWR VPWR sky130_fd_sc_hd__diode_2
Xmux_top_track_0.mux_l1_in_0_ chanx_right_in[1] top_left_grid_pin_1_ mux_top_track_0.mux_l1_in_0_/S
+ VGND VGND VPWR VPWR mux_top_track_0.mux_l1_in_0_/X sky130_fd_sc_hd__mux2_1
XFILLER_5_179 VGND VGND VPWR VPWR sky130_fd_sc_hd__decap_4
Xmux_right_track_22.mux_l1_in_0_ right_bottom_grid_pin_41_ chany_top_in[17] mux_right_track_22.mux_l1_in_0_/S
+ VGND VGND VPWR VPWR mux_right_track_22.mux_l1_in_0_/X sky130_fd_sc_hd__mux2_1
XANTENNA_mux_bottom_track_17.mux_l1_in_0__A1 chany_top_in[8] VGND VGND VPWR VPWR sky130_fd_sc_hd__diode_2
Xmem_right_track_18.sky130_fd_sc_hd__dfxtp_1_1_ clkbuf_3_7_0_mem_bottom_track_1.prog_clk/X
+ mux_right_track_18.mux_l1_in_1_/S VGND VGND VPWR VPWR mux_right_track_18.mux_l2_in_0_/S
+ sky130_fd_sc_hd__dfxtp_1
XFILLER_17_220 VGND VGND VPWR VPWR sky130_fd_sc_hd__decap_3
XFILLER_32_212 VGND VGND VPWR VPWR sky130_fd_sc_hd__fill_2
Xmux_right_track_34.mux_l2_in_0_ _042_/HI mux_right_track_34.mux_l1_in_0_/X mux_right_track_34.mux_l2_in_0_/S
+ VGND VGND VPWR VPWR mux_right_track_34.mux_l2_in_0_/X sky130_fd_sc_hd__mux2_1
XFILLER_23_15 VGND VGND VPWR VPWR sky130_fd_sc_hd__decap_12
XFILLER_23_59 VGND VGND VPWR VPWR sky130_fd_sc_hd__fill_2
Xmux_right_track_8.sky130_fd_sc_hd__buf_4_0_ mux_right_track_8.mux_l3_in_0_/X VGND
+ VGND VPWR VPWR _070_/A sky130_fd_sc_hd__buf_4
XFILLER_9_39 VGND VGND VPWR VPWR sky130_fd_sc_hd__decap_12
Xmux_bottom_track_25.mux_l2_in_1_ _056_/HI chanx_right_in[14] mux_bottom_track_25.mux_l2_in_1_/S
+ VGND VGND VPWR VPWR mux_bottom_track_25.mux_l2_in_1_/X sky130_fd_sc_hd__mux2_1
XFILLER_1_193 VGND VGND VPWR VPWR sky130_fd_sc_hd__fill_2
Xmux_bottom_track_9.mux_l3_in_0_ mux_bottom_track_9.mux_l2_in_1_/X mux_bottom_track_9.mux_l2_in_0_/X