* NGSPICE file created from sb_0__3_.ext - technology: EFS8A

* Black-box entry subcircuit for scs8hd_lpflow_inputisolatch_1 abstract view
.subckt scs8hd_lpflow_inputisolatch_1 D Q SLEEPB vgnd vpwr
.ends

* Black-box entry subcircuit for scs8hd_decap_6 abstract view
.subckt scs8hd_decap_6 vgnd vpwr
.ends

* Black-box entry subcircuit for scs8hd_inv_1 abstract view
.subckt scs8hd_inv_1 A Y vgnd vpwr
.ends

* Black-box entry subcircuit for scs8hd_diode_2 abstract view
.subckt scs8hd_diode_2 DIODE vgnd vpwr
.ends

* Black-box entry subcircuit for scs8hd_decap_8 abstract view
.subckt scs8hd_decap_8 vgnd vpwr
.ends

* Black-box entry subcircuit for scs8hd_decap_12 abstract view
.subckt scs8hd_decap_12 vgnd vpwr
.ends

* Black-box entry subcircuit for scs8hd_fill_2 abstract view
.subckt scs8hd_fill_2 vpwr vgnd
.ends

* Black-box entry subcircuit for scs8hd_ebufn_2 abstract view
.subckt scs8hd_ebufn_2 A TEB Z vgnd vpwr
.ends

* Black-box entry subcircuit for scs8hd_inv_8 abstract view
.subckt scs8hd_inv_8 A Y vgnd vpwr
.ends

* Black-box entry subcircuit for scs8hd_nor2_4 abstract view
.subckt scs8hd_nor2_4 A B Y vgnd vpwr
.ends

* Black-box entry subcircuit for scs8hd_buf_1 abstract view
.subckt scs8hd_buf_1 A X vgnd vpwr
.ends

* Black-box entry subcircuit for scs8hd_tapvpwrvgnd_1 abstract view
.subckt scs8hd_tapvpwrvgnd_1 vgnd vpwr
.ends

* Black-box entry subcircuit for scs8hd_decap_4 abstract view
.subckt scs8hd_decap_4 vgnd vpwr
.ends

* Black-box entry subcircuit for scs8hd_decap_3 abstract view
.subckt scs8hd_decap_3 vgnd vpwr
.ends

* Black-box entry subcircuit for scs8hd_or4_4 abstract view
.subckt scs8hd_or4_4 A B C D X vgnd vpwr
.ends

* Black-box entry subcircuit for scs8hd_fill_1 abstract view
.subckt scs8hd_fill_1 vgnd vpwr
.ends

* Black-box entry subcircuit for scs8hd_buf_2 abstract view
.subckt scs8hd_buf_2 A X vgnd vpwr
.ends

* Black-box entry subcircuit for scs8hd_nor3_4 abstract view
.subckt scs8hd_nor3_4 A B C Y vgnd vpwr
.ends

* Black-box entry subcircuit for scs8hd_or2_4 abstract view
.subckt scs8hd_or2_4 A B X vgnd vpwr
.ends

* Black-box entry subcircuit for scs8hd_conb_1 abstract view
.subckt scs8hd_conb_1 HI LO vgnd vpwr
.ends

* Black-box entry subcircuit for scs8hd_nand2_4 abstract view
.subckt scs8hd_nand2_4 A B Y vgnd vpwr
.ends

.subckt sb_0__3_ address[0] address[1] address[2] address[3] address[4] address[5]
+ bottom_left_grid_pin_11_ bottom_left_grid_pin_13_ bottom_left_grid_pin_15_ bottom_left_grid_pin_1_
+ bottom_left_grid_pin_3_ bottom_left_grid_pin_5_ bottom_left_grid_pin_7_ bottom_left_grid_pin_9_
+ bottom_right_grid_pin_11_ chanx_right_in[0] chanx_right_in[1] chanx_right_in[2]
+ chanx_right_in[3] chanx_right_in[4] chanx_right_in[5] chanx_right_in[6] chanx_right_in[7]
+ chanx_right_in[8] chanx_right_out[0] chanx_right_out[1] chanx_right_out[2] chanx_right_out[3]
+ chanx_right_out[4] chanx_right_out[5] chanx_right_out[6] chanx_right_out[7] chanx_right_out[8]
+ chany_bottom_in[0] chany_bottom_in[1] chany_bottom_in[2] chany_bottom_in[3] chany_bottom_in[4]
+ chany_bottom_in[5] chany_bottom_in[6] chany_bottom_in[7] chany_bottom_in[8] chany_bottom_out[0]
+ chany_bottom_out[1] chany_bottom_out[2] chany_bottom_out[3] chany_bottom_out[4]
+ chany_bottom_out[5] chany_bottom_out[6] chany_bottom_out[7] chany_bottom_out[8]
+ data_in enable right_bottom_grid_pin_12_ right_top_grid_pin_11_ right_top_grid_pin_13_
+ right_top_grid_pin_15_ right_top_grid_pin_1_ right_top_grid_pin_3_ right_top_grid_pin_5_
+ right_top_grid_pin_7_ right_top_grid_pin_9_ vpwr vgnd
Xmem_right_track_12.LATCH_1_.latch data_in _184_/A _131_/Y vgnd vpwr scs8hd_lpflow_inputisolatch_1
XFILLER_22_188 vgnd vpwr scs8hd_decap_6
Xmux_bottom_track_1.INVTX1_1_.scs8hd_inv_1 bottom_right_grid_pin_11_ mux_bottom_track_1.INVTX1_1_.scs8hd_inv_1/Y
+ vgnd vpwr scs8hd_inv_1
XANTENNA_mem_bottom_track_7.LATCH_1_.latch_D data_in vgnd vpwr scs8hd_diode_2
XFILLER_27_236 vgnd vpwr scs8hd_decap_8
XFILLER_12_32 vgnd vpwr scs8hd_decap_12
XFILLER_10_169 vpwr vgnd scs8hd_fill_2
XFILLER_10_114 vpwr vgnd scs8hd_fill_2
XFILLER_10_103 vpwr vgnd scs8hd_fill_2
Xmux_right_track_12.mux_l2_in_0_.TGATE_0_.scs8hd_ebufn_2 mux_right_track_12.mux_l1_in_0_.TGATE_0_.scs8hd_ebufn_2/Z
+ _184_/A mux_right_track_12.tap_buf4_0_.scs8hd_inv_1/A vgnd vpwr scs8hd_ebufn_2
XFILLER_37_51 vgnd vpwr scs8hd_decap_8
XFILLER_37_62 vgnd vpwr scs8hd_decap_12
XFILLER_18_236 vpwr vgnd scs8hd_fill_2
XANTENNA__108__B enable vgnd vpwr scs8hd_diode_2
XANTENNA__124__A _127_/A vgnd vpwr scs8hd_diode_2
XFILLER_5_140 vpwr vgnd scs8hd_fill_2
XFILLER_5_184 vpwr vgnd scs8hd_fill_2
XFILLER_24_206 vgnd vpwr scs8hd_decap_6
XANTENNA_mux_right_track_4.tap_buf4_0_.scs8hd_inv_1_A mux_right_track_4.tap_buf4_0_.scs8hd_inv_1/A
+ vgnd vpwr scs8hd_diode_2
X_200_ _200_/A _200_/Y vgnd vpwr scs8hd_inv_8
X_131_ _131_/A _131_/B _131_/Y vgnd vpwr scs8hd_nor2_4
XFILLER_23_86 vgnd vpwr scs8hd_decap_12
XANTENNA__110__C _100_/X vgnd vpwr scs8hd_diode_2
XANTENNA__119__A _127_/A vgnd vpwr scs8hd_diode_2
Xmux_bottom_track_9.tap_buf4_0_.scs8hd_inv_1 mux_bottom_track_9.tap_buf4_0_.scs8hd_inv_1/A
+ _239_/A vgnd vpwr scs8hd_inv_1
Xmux_bottom_track_1.mux_l1_in_0_.TGATE_1_.scs8hd_ebufn_2 mux_bottom_track_1.INVTX1_1_.scs8hd_inv_1/Y
+ _191_/Y mux_bottom_track_1.mux_l1_in_0_.TGATE_0_.scs8hd_ebufn_2/Z vgnd vpwr scs8hd_ebufn_2
XANTENNA_mem_bottom_track_17.LATCH_0_.latch_D data_in vgnd vpwr scs8hd_diode_2
X_114_ _114_/A _146_/B vgnd vpwr scs8hd_buf_1
Xmux_right_track_16.mux_l2_in_0_.TGATE_1_.scs8hd_ebufn_2 _221_/HI _188_/Y mux_right_track_16.tap_buf4_0_.scs8hd_inv_1/A
+ vgnd vpwr scs8hd_ebufn_2
XFILLER_38_117 vgnd vpwr scs8hd_decap_12
XFILLER_20_32 vgnd vpwr scs8hd_decap_12
XFILLER_4_238 vpwr vgnd scs8hd_fill_2
XFILLER_29_74 vgnd vpwr scs8hd_decap_12
XANTENNA__116__B _115_/X vgnd vpwr scs8hd_diode_2
XANTENNA__132__A address[0] vgnd vpwr scs8hd_diode_2
XFILLER_6_67 vgnd vpwr scs8hd_decap_8
XFILLER_6_56 vgnd vpwr scs8hd_decap_8
XANTENNA_mux_bottom_track_17.mux_l1_in_0_.TGATE_1_.scs8hd_ebufn_2_A mux_bottom_track_17.INVTX1_1_.scs8hd_inv_1/Y
+ vgnd vpwr scs8hd_diode_2
XFILLER_13_3 vgnd vpwr scs8hd_decap_12
Xmem_right_track_8.LATCH_1_.latch data_in _180_/A _124_/Y vgnd vpwr scs8hd_lpflow_inputisolatch_1
XFILLER_25_175 vpwr vgnd scs8hd_fill_2
XFILLER_40_178 vgnd vpwr scs8hd_decap_12
XFILLER_25_197 vgnd vpwr scs8hd_decap_6
Xmux_right_track_6.mux_l1_in_0_.TGATE_0_.scs8hd_ebufn_2 mux_right_track_6.INVTX1_0_.scs8hd_inv_1/Y
+ _179_/A mux_right_track_6.mux_l1_in_0_.TGATE_0_.scs8hd_ebufn_2/Z vgnd vpwr scs8hd_ebufn_2
XANTENNA_mux_bottom_track_15.mux_l1_in_0_.TGATE_1_.scs8hd_ebufn_2_TEB _205_/Y vgnd
+ vpwr scs8hd_diode_2
XFILLER_31_86 vgnd vpwr scs8hd_decap_12
XPHY_170 vgnd vpwr scs8hd_tapvpwrvgnd_1
XANTENNA__127__A _127_/A vgnd vpwr scs8hd_diode_2
XFILLER_31_123 vgnd vpwr scs8hd_decap_12
XPHY_181 vgnd vpwr scs8hd_tapvpwrvgnd_1
XPHY_192 vgnd vpwr scs8hd_tapvpwrvgnd_1
XANTENNA_mux_right_track_10.mux_l1_in_0_.TGATE_1_.scs8hd_ebufn_2_TEB _183_/Y vgnd
+ vpwr scs8hd_diode_2
XFILLER_39_245 vgnd vpwr scs8hd_decap_8
XFILLER_22_145 vgnd vpwr scs8hd_decap_8
XFILLER_13_156 vpwr vgnd scs8hd_fill_2
XFILLER_42_63 vgnd vpwr scs8hd_decap_12
XFILLER_3_57 vpwr vgnd scs8hd_fill_2
XFILLER_3_46 vpwr vgnd scs8hd_fill_2
XFILLER_3_35 vgnd vpwr scs8hd_decap_4
XFILLER_36_215 vgnd vpwr scs8hd_decap_12
XANTENNA_mux_right_track_12.mux_l2_in_0_.TGATE_0_.scs8hd_ebufn_2_A mux_right_track_12.mux_l1_in_0_.TGATE_0_.scs8hd_ebufn_2/Z
+ vgnd vpwr scs8hd_diode_2
XFILLER_27_215 vpwr vgnd scs8hd_fill_2
XFILLER_42_218 vgnd vpwr scs8hd_decap_12
XFILLER_12_44 vgnd vpwr scs8hd_decap_12
XANTENNA__230__A _230_/A vgnd vpwr scs8hd_diode_2
XFILLER_37_74 vgnd vpwr scs8hd_decap_12
XFILLER_18_215 vgnd vpwr scs8hd_decap_3
XANTENNA__124__B _123_/X vgnd vpwr scs8hd_diode_2
XANTENNA_mux_bottom_track_1.mux_l1_in_0_.TGATE_1_.scs8hd_ebufn_2_TEB _191_/Y vgnd
+ vpwr scs8hd_diode_2
XANTENNA__140__A _097_/X vgnd vpwr scs8hd_diode_2
XANTENNA_mem_bottom_track_15.LATCH_0_.latch_SLEEPB _169_/Y vgnd vpwr scs8hd_diode_2
XFILLER_32_251 vgnd vpwr scs8hd_decap_4
X_130_ _122_/X _146_/B _100_/A _103_/X _131_/B vgnd vpwr scs8hd_or4_4
XFILLER_23_240 vpwr vgnd scs8hd_fill_2
XFILLER_23_98 vgnd vpwr scs8hd_decap_12
XFILLER_2_111 vpwr vgnd scs8hd_fill_2
XANTENNA__110__D _126_/D vgnd vpwr scs8hd_diode_2
XFILLER_2_133 vgnd vpwr scs8hd_decap_3
XANTENNA__119__B _118_/X vgnd vpwr scs8hd_diode_2
XFILLER_0_47 vgnd vpwr scs8hd_decap_4
XANTENNA__135__A _131_/A vgnd vpwr scs8hd_diode_2
XANTENNA_mem_right_track_2.LATCH_0_.latch_D data_in vgnd vpwr scs8hd_diode_2
XFILLER_20_276 vgnd vpwr scs8hd_fill_1
XFILLER_18_32 vgnd vpwr scs8hd_decap_12
XANTENNA_mux_bottom_track_17.mux_l1_in_0_.TGATE_0_.scs8hd_ebufn_2_TEB _207_/A vgnd
+ vpwr scs8hd_diode_2
X_113_ address[2] _114_/A vgnd vpwr scs8hd_inv_8
XFILLER_11_276 vgnd vpwr scs8hd_fill_1
XFILLER_11_254 vgnd vpwr scs8hd_decap_4
XFILLER_7_236 vpwr vgnd scs8hd_fill_2
XFILLER_38_129 vgnd vpwr scs8hd_decap_12
XANTENNA_mux_right_track_12.mux_l1_in_0_.TGATE_0_.scs8hd_ebufn_2_TEB _185_/A vgnd
+ vpwr scs8hd_diode_2
Xmux_right_track_14.mux_l1_in_0_.TGATE_0_.scs8hd_ebufn_2 mux_right_track_14.INVTX1_0_.scs8hd_inv_1/Y
+ _187_/A mux_right_track_14.mux_l1_in_0_.TGATE_0_.scs8hd_ebufn_2/Z vgnd vpwr scs8hd_ebufn_2
XFILLER_37_184 vgnd vpwr scs8hd_decap_12
XFILLER_1_90 vpwr vgnd scs8hd_fill_2
XFILLER_20_44 vgnd vpwr scs8hd_decap_12
XFILLER_4_206 vgnd vpwr scs8hd_decap_8
XFILLER_29_86 vgnd vpwr scs8hd_decap_12
XANTENNA_mux_bottom_track_3.mux_l2_in_0_.TGATE_0_.scs8hd_ebufn_2_A mux_bottom_track_3.mux_l2_in_0_.TGATE_0_.scs8hd_ebufn_2/A
+ vgnd vpwr scs8hd_diode_2
XFILLER_19_140 vgnd vpwr scs8hd_fill_1
XANTENNA_mem_right_track_16.LATCH_0_.latch_SLEEPB _142_/Y vgnd vpwr scs8hd_diode_2
XFILLER_34_154 vgnd vpwr scs8hd_decap_12
XANTENNA_mem_bottom_track_13.LATCH_1_.latch_SLEEPB _164_/Y vgnd vpwr scs8hd_diode_2
XFILLER_25_154 vpwr vgnd scs8hd_fill_2
XFILLER_25_110 vgnd vpwr scs8hd_decap_12
XFILLER_31_98 vgnd vpwr scs8hd_decap_12
XANTENNA__233__A _233_/A vgnd vpwr scs8hd_diode_2
Xmux_right_track_16.INVTX1_0_.scs8hd_inv_1 right_bottom_grid_pin_12_ mux_right_track_16.INVTX1_0_.scs8hd_inv_1/Y
+ vgnd vpwr scs8hd_inv_1
XPHY_160 vgnd vpwr scs8hd_tapvpwrvgnd_1
XPHY_171 vgnd vpwr scs8hd_tapvpwrvgnd_1
XPHY_182 vgnd vpwr scs8hd_tapvpwrvgnd_1
XPHY_193 vgnd vpwr scs8hd_tapvpwrvgnd_1
XANTENNA__127__B _128_/B vgnd vpwr scs8hd_diode_2
XFILLER_31_135 vgnd vpwr scs8hd_decap_12
XFILLER_16_143 vpwr vgnd scs8hd_fill_2
XANTENNA_mux_bottom_track_3.mux_l1_in_0_.TGATE_0_.scs8hd_ebufn_2_TEB _193_/A vgnd
+ vpwr scs8hd_diode_2
XANTENNA__143__A _097_/X vgnd vpwr scs8hd_diode_2
XFILLER_22_124 vgnd vpwr scs8hd_decap_8
XFILLER_30_190 vgnd vpwr scs8hd_decap_12
XFILLER_22_135 vgnd vpwr scs8hd_fill_1
XANTENNA_mux_right_track_2.mux_l2_in_0_.TGATE_1_.scs8hd_ebufn_2_TEB _174_/Y vgnd vpwr
+ scs8hd_diode_2
XFILLER_26_32 vgnd vpwr scs8hd_decap_12
XFILLER_13_179 vpwr vgnd scs8hd_fill_2
XFILLER_13_135 vpwr vgnd scs8hd_fill_2
XANTENNA__228__A _228_/A vgnd vpwr scs8hd_diode_2
XFILLER_42_75 vgnd vpwr scs8hd_decap_12
Xmux_bottom_track_17.tap_buf4_0_.scs8hd_inv_1 mux_bottom_track_17.tap_buf4_0_.scs8hd_inv_1/A
+ _235_/A vgnd vpwr scs8hd_inv_1
XFILLER_3_69 vgnd vpwr scs8hd_decap_6
XANTENNA__138__A address[4] vgnd vpwr scs8hd_diode_2
XFILLER_36_227 vgnd vpwr scs8hd_decap_12
XFILLER_8_161 vpwr vgnd scs8hd_fill_2
XFILLER_27_249 vgnd vpwr scs8hd_fill_1
XFILLER_12_56 vgnd vpwr scs8hd_decap_12
XFILLER_10_149 vpwr vgnd scs8hd_fill_2
XFILLER_6_109 vpwr vgnd scs8hd_fill_2
XFILLER_33_208 vgnd vpwr scs8hd_decap_12
XFILLER_37_86 vgnd vpwr scs8hd_decap_12
XFILLER_18_205 vpwr vgnd scs8hd_fill_2
XFILLER_5_175 vpwr vgnd scs8hd_fill_2
XANTENNA__140__B _126_/B vgnd vpwr scs8hd_diode_2
XFILLER_32_274 vgnd vpwr scs8hd_fill_1
XFILLER_17_271 vgnd vpwr scs8hd_decap_6
XANTENNA_mem_right_track_14.LATCH_1_.latch_SLEEPB _135_/Y vgnd vpwr scs8hd_diode_2
XFILLER_3_3 vgnd vpwr scs8hd_decap_12
XFILLER_2_145 vpwr vgnd scs8hd_fill_2
XANTENNA__241__A _241_/A vgnd vpwr scs8hd_diode_2
XFILLER_2_178 vpwr vgnd scs8hd_fill_2
XFILLER_14_263 vgnd vpwr scs8hd_decap_12
X_189_ _189_/A _189_/Y vgnd vpwr scs8hd_inv_8
XANTENNA_mux_right_track_12.INVTX1_1_.scs8hd_inv_1_A chany_bottom_in[1] vgnd vpwr
+ scs8hd_diode_2
XANTENNA__135__B _135_/B vgnd vpwr scs8hd_diode_2
XANTENNA__151__A _133_/A vgnd vpwr scs8hd_diode_2
XFILLER_36_3 vgnd vpwr scs8hd_decap_12
XFILLER_18_44 vgnd vpwr scs8hd_decap_12
XFILLER_34_32 vgnd vpwr scs8hd_decap_12
XFILLER_18_99 vgnd vpwr scs8hd_fill_1
X_112_ _128_/A _110_/X _112_/Y vgnd vpwr scs8hd_nor2_4
XFILLER_11_266 vpwr vgnd scs8hd_fill_2
XFILLER_11_233 vgnd vpwr scs8hd_decap_4
XANTENNA__236__A _236_/A vgnd vpwr scs8hd_diode_2
XANTENNA__146__A address[3] vgnd vpwr scs8hd_diode_2
XFILLER_37_196 vgnd vpwr scs8hd_decap_12
XANTENNA_mux_right_track_4.mux_l2_in_0_.TGATE_0_.scs8hd_ebufn_2_TEB _176_/A vgnd vpwr
+ scs8hd_diode_2
Xmux_right_track_2.mux_l2_in_0_.TGATE_0_.scs8hd_ebufn_2 mux_right_track_2.mux_l2_in_0_.TGATE_0_.scs8hd_ebufn_2/A
+ _174_/A mux_right_track_2.tap_buf4_0_.scs8hd_inv_1/A vgnd vpwr scs8hd_ebufn_2
XFILLER_20_56 vgnd vpwr scs8hd_decap_12
XFILLER_28_141 vgnd vpwr scs8hd_decap_12
XFILLER_29_98 vgnd vpwr scs8hd_decap_12
XANTENNA_mux_bottom_track_11.mux_l2_in_0_.TGATE_0_.scs8hd_ebufn_2_A mux_bottom_track_11.mux_l1_in_0_.TGATE_0_.scs8hd_ebufn_2/Z
+ vgnd vpwr scs8hd_diode_2
XFILLER_3_240 vpwr vgnd scs8hd_fill_2
XFILLER_34_166 vgnd vpwr scs8hd_decap_12
XFILLER_19_152 vpwr vgnd scs8hd_fill_2
XANTENNA_mux_bottom_track_11.INVTX1_1_.scs8hd_inv_1_A bottom_left_grid_pin_9_ vgnd
+ vpwr scs8hd_diode_2
XFILLER_0_243 vgnd vpwr scs8hd_decap_3
XFILLER_0_210 vgnd vpwr scs8hd_fill_1
XFILLER_16_122 vpwr vgnd scs8hd_fill_2
XPHY_150 vgnd vpwr scs8hd_tapvpwrvgnd_1
XPHY_161 vgnd vpwr scs8hd_tapvpwrvgnd_1
XPHY_172 vgnd vpwr scs8hd_tapvpwrvgnd_1
XPHY_183 vgnd vpwr scs8hd_tapvpwrvgnd_1
XPHY_194 vgnd vpwr scs8hd_tapvpwrvgnd_1
XFILLER_31_147 vgnd vpwr scs8hd_decap_12
XFILLER_16_188 vpwr vgnd scs8hd_fill_2
XANTENNA__143__B _126_/B vgnd vpwr scs8hd_diode_2
XFILLER_39_258 vpwr vgnd scs8hd_fill_2
XANTENNA_mux_right_track_4.INVTX1_0_.scs8hd_inv_1_A right_top_grid_pin_5_ vgnd vpwr
+ scs8hd_diode_2
XANTENNA_mux_bottom_track_7.tap_buf4_0_.scs8hd_inv_1_A mux_bottom_track_7.tap_buf4_0_.scs8hd_inv_1/A
+ vgnd vpwr scs8hd_diode_2
Xmem_right_track_4.LATCH_1_.latch data_in _176_/A _116_/Y vgnd vpwr scs8hd_lpflow_inputisolatch_1
XANTENNA_mem_right_track_2.LATCH_0_.latch_SLEEPB _112_/Y vgnd vpwr scs8hd_diode_2
XFILLER_26_44 vgnd vpwr scs8hd_decap_12
XFILLER_42_87 vgnd vpwr scs8hd_decap_6
XFILLER_42_32 vgnd vpwr scs8hd_decap_12
XFILLER_13_169 vpwr vgnd scs8hd_fill_2
XFILLER_13_114 vpwr vgnd scs8hd_fill_2
XFILLER_9_118 vpwr vgnd scs8hd_fill_2
Xmux_right_track_6.mux_l2_in_0_.TGATE_1_.scs8hd_ebufn_2 _224_/HI _178_/Y mux_right_track_6.tap_buf4_0_.scs8hd_inv_1/A
+ vgnd vpwr scs8hd_ebufn_2
XANTENNA_mux_right_track_8.INVTX1_1_.scs8hd_inv_1_A chany_bottom_in[3] vgnd vpwr scs8hd_diode_2
XFILLER_3_15 vgnd vpwr scs8hd_decap_12
XANTENNA__138__B _166_/D vgnd vpwr scs8hd_diode_2
XFILLER_36_239 vgnd vpwr scs8hd_decap_12
XANTENNA__154__A _158_/A vgnd vpwr scs8hd_diode_2
Xmux_right_track_14.INVTX1_0_.scs8hd_inv_1 right_top_grid_pin_15_ mux_right_track_14.INVTX1_0_.scs8hd_inv_1/Y
+ vgnd vpwr scs8hd_inv_1
XFILLER_10_128 vgnd vpwr scs8hd_decap_4
XFILLER_12_68 vgnd vpwr scs8hd_decap_12
XFILLER_37_98 vgnd vpwr scs8hd_decap_12
XFILLER_41_220 vgnd vpwr scs8hd_decap_12
XANTENNA__239__A _239_/A vgnd vpwr scs8hd_diode_2
XANTENNA__140__C _146_/C vgnd vpwr scs8hd_diode_2
XFILLER_5_165 vgnd vpwr scs8hd_decap_4
XANTENNA__149__A address[3] vgnd vpwr scs8hd_diode_2
Xmux_bottom_track_17.mux_l2_in_0_.TGATE_0_.scs8hd_ebufn_2 mux_bottom_track_17.mux_l1_in_0_.TGATE_0_.scs8hd_ebufn_2/Z
+ _206_/A mux_bottom_track_17.tap_buf4_0_.scs8hd_inv_1/A vgnd vpwr scs8hd_ebufn_2
XFILLER_23_231 vgnd vpwr scs8hd_decap_3
XFILLER_2_157 vpwr vgnd scs8hd_fill_2
XFILLER_2_124 vgnd vpwr scs8hd_decap_3
XANTENNA_mux_bottom_track_1.INVTX1_0_.scs8hd_inv_1_A chanx_right_in[7] vgnd vpwr scs8hd_diode_2
XFILLER_0_27 vgnd vpwr scs8hd_decap_4
XFILLER_0_16 vgnd vpwr scs8hd_decap_4
X_188_ _188_/A _188_/Y vgnd vpwr scs8hd_inv_8
Xmux_right_track_10.mux_l2_in_0_.TGATE_0_.scs8hd_ebufn_2 mux_right_track_10.mux_l1_in_0_.TGATE_1_.scs8hd_ebufn_2/Z
+ _182_/A mux_right_track_10.tap_buf4_0_.scs8hd_inv_1/A vgnd vpwr scs8hd_ebufn_2
XANTENNA__151__B _150_/B vgnd vpwr scs8hd_diode_2
XFILLER_29_3 vgnd vpwr scs8hd_decap_12
XANTENNA_mux_bottom_track_5.INVTX1_1_.scs8hd_inv_1_A bottom_left_grid_pin_3_ vgnd
+ vpwr scs8hd_diode_2
XFILLER_20_245 vpwr vgnd scs8hd_fill_2
XFILLER_18_56 vgnd vpwr scs8hd_decap_12
XFILLER_34_44 vgnd vpwr scs8hd_decap_12
XFILLER_11_212 vgnd vpwr scs8hd_decap_6
X_111_ _127_/A _110_/X _111_/Y vgnd vpwr scs8hd_nor2_4
XFILLER_7_205 vgnd vpwr scs8hd_fill_1
XANTENNA_mem_right_track_0.LATCH_1_.latch_SLEEPB _105_/Y vgnd vpwr scs8hd_diode_2
XANTENNA__146__B _146_/B vgnd vpwr scs8hd_diode_2
XANTENNA__162__A _159_/A vgnd vpwr scs8hd_diode_2
XFILLER_6_260 vgnd vpwr scs8hd_decap_12
XFILLER_1_81 vpwr vgnd scs8hd_fill_2
XANTENNA_mem_right_track_14.LATCH_1_.latch_D data_in vgnd vpwr scs8hd_diode_2
XFILLER_20_68 vgnd vpwr scs8hd_decap_12
XANTENNA_mem_bottom_track_7.LATCH_0_.latch_SLEEPB _156_/Y vgnd vpwr scs8hd_diode_2
XANTENNA_mux_right_track_8.mux_l2_in_0_.TGATE_1_.scs8hd_ebufn_2_A _225_/HI vgnd vpwr
+ scs8hd_diode_2
XANTENNA_mem_bottom_track_13.LATCH_1_.latch_D data_in vgnd vpwr scs8hd_diode_2
XFILLER_6_15 vgnd vpwr scs8hd_decap_12
XANTENNA__157__A _122_/X vgnd vpwr scs8hd_diode_2
XFILLER_34_178 vgnd vpwr scs8hd_decap_12
XFILLER_19_197 vgnd vpwr scs8hd_fill_1
XFILLER_19_175 vpwr vgnd scs8hd_fill_2
Xmux_right_track_14.mux_l2_in_0_.TGATE_1_.scs8hd_ebufn_2 _220_/HI _186_/Y mux_right_track_14.tap_buf4_0_.scs8hd_inv_1/A
+ vgnd vpwr scs8hd_ebufn_2
XANTENNA_mem_bottom_track_9.LATCH_0_.latch_D data_in vgnd vpwr scs8hd_diode_2
XANTENNA_mux_bottom_track_17.INVTX1_0_.scs8hd_inv_1_A chanx_right_in[8] vgnd vpwr
+ scs8hd_diode_2
XFILLER_25_123 vgnd vpwr scs8hd_decap_12
XANTENNA_mux_right_track_4.mux_l1_in_0_.TGATE_1_.scs8hd_ebufn_2_A mux_right_track_4.INVTX1_1_.scs8hd_inv_1/Y
+ vgnd vpwr scs8hd_diode_2
XPHY_140 vgnd vpwr scs8hd_tapvpwrvgnd_1
XPHY_151 vgnd vpwr scs8hd_tapvpwrvgnd_1
XPHY_162 vgnd vpwr scs8hd_tapvpwrvgnd_1
XPHY_173 vgnd vpwr scs8hd_tapvpwrvgnd_1
XPHY_184 vgnd vpwr scs8hd_tapvpwrvgnd_1
XPHY_195 vgnd vpwr scs8hd_tapvpwrvgnd_1
XFILLER_31_159 vgnd vpwr scs8hd_decap_12
XANTENNA__143__C _146_/C vgnd vpwr scs8hd_diode_2
XFILLER_39_226 vpwr vgnd scs8hd_fill_2
XFILLER_11_3 vgnd vpwr scs8hd_decap_12
XFILLER_26_56 vgnd vpwr scs8hd_decap_12
XFILLER_42_44 vgnd vpwr scs8hd_decap_12
XFILLER_13_126 vgnd vpwr scs8hd_decap_3
XFILLER_3_27 vgnd vpwr scs8hd_fill_1
Xmux_right_track_4.mux_l1_in_0_.TGATE_0_.scs8hd_ebufn_2 mux_right_track_4.INVTX1_0_.scs8hd_inv_1/Y
+ _177_/A mux_right_track_4.mux_l1_in_0_.TGATE_0_.scs8hd_ebufn_2/Z vgnd vpwr scs8hd_ebufn_2
XANTENNA__154__B _153_/X vgnd vpwr scs8hd_diode_2
XFILLER_12_192 vpwr vgnd scs8hd_fill_2
XFILLER_8_174 vgnd vpwr scs8hd_decap_12
XANTENNA__170__A _126_/D vgnd vpwr scs8hd_diode_2
XFILLER_35_262 vgnd vpwr scs8hd_decap_12
XFILLER_10_118 vgnd vpwr scs8hd_decap_4
XFILLER_41_232 vgnd vpwr scs8hd_decap_12
XFILLER_26_273 vpwr vgnd scs8hd_fill_2
XFILLER_5_144 vpwr vgnd scs8hd_fill_2
XFILLER_5_100 vpwr vgnd scs8hd_fill_2
XANTENNA__140__D _102_/X vgnd vpwr scs8hd_diode_2
XFILLER_5_188 vpwr vgnd scs8hd_fill_2
XANTENNA__149__B _146_/B vgnd vpwr scs8hd_diode_2
XFILLER_17_240 vpwr vgnd scs8hd_fill_2
XANTENNA_mem_bottom_track_5.LATCH_1_.latch_SLEEPB _150_/Y vgnd vpwr scs8hd_diode_2
XANTENNA__165__A _159_/A vgnd vpwr scs8hd_diode_2
XFILLER_32_276 vgnd vpwr scs8hd_fill_1
XFILLER_23_265 vpwr vgnd scs8hd_fill_2
XFILLER_23_254 vpwr vgnd scs8hd_fill_2
Xmux_right_track_12.INVTX1_0_.scs8hd_inv_1 right_top_grid_pin_13_ mux_right_track_12.INVTX1_0_.scs8hd_inv_1/Y
+ vgnd vpwr scs8hd_inv_1
XFILLER_14_276 vgnd vpwr scs8hd_fill_1
XFILLER_14_232 vgnd vpwr scs8hd_decap_4
XFILLER_9_59 vpwr vgnd scs8hd_fill_2
XFILLER_9_15 vgnd vpwr scs8hd_decap_12
X_187_ _187_/A _187_/Y vgnd vpwr scs8hd_inv_8
Xmux_right_track_8.mux_l1_in_0_.TGATE_1_.scs8hd_ebufn_2 mux_right_track_8.INVTX1_1_.scs8hd_inv_1/Y
+ _181_/Y mux_right_track_8.mux_l1_in_0_.TGATE_0_.scs8hd_ebufn_2/Z vgnd vpwr scs8hd_ebufn_2
XFILLER_20_224 vpwr vgnd scs8hd_fill_2
XFILLER_20_213 vgnd vpwr scs8hd_fill_1
XFILLER_18_68 vgnd vpwr scs8hd_decap_12
X_110_ _097_/X _126_/B _100_/X _126_/D _110_/X vgnd vpwr scs8hd_or4_4
XANTENNA_mux_bottom_track_15.mux_l2_in_0_.TGATE_1_.scs8hd_ebufn_2_TEB _204_/Y vgnd
+ vpwr scs8hd_diode_2
XFILLER_34_56 vgnd vpwr scs8hd_decap_12
XFILLER_7_217 vpwr vgnd scs8hd_fill_2
XANTENNA_mux_right_track_10.mux_l2_in_0_.TGATE_1_.scs8hd_ebufn_2_TEB _182_/Y vgnd
+ vpwr scs8hd_diode_2
X_239_ _239_/A chany_bottom_out[4] vgnd vpwr scs8hd_buf_2
XANTENNA__146__C _146_/C vgnd vpwr scs8hd_diode_2
XANTENNA__162__B _160_/X vgnd vpwr scs8hd_diode_2
XFILLER_41_3 vgnd vpwr scs8hd_decap_12
XFILLER_6_272 vgnd vpwr scs8hd_decap_3
XFILLER_37_110 vgnd vpwr scs8hd_decap_12
XFILLER_28_154 vgnd vpwr scs8hd_decap_12
XFILLER_6_27 vgnd vpwr scs8hd_decap_4
XFILLER_19_132 vpwr vgnd scs8hd_fill_2
XANTENNA__157__B address[2] vgnd vpwr scs8hd_diode_2
XANTENNA__173__A _173_/A vgnd vpwr scs8hd_diode_2
XFILLER_25_135 vgnd vpwr scs8hd_decap_12
Xmux_right_track_12.mux_l1_in_0_.TGATE_0_.scs8hd_ebufn_2 mux_right_track_12.INVTX1_0_.scs8hd_inv_1/Y
+ _185_/A mux_right_track_12.mux_l1_in_0_.TGATE_0_.scs8hd_ebufn_2/Z vgnd vpwr scs8hd_ebufn_2
XFILLER_40_105 vgnd vpwr scs8hd_decap_12
XFILLER_25_179 vpwr vgnd scs8hd_fill_2
XPHY_130 vgnd vpwr scs8hd_tapvpwrvgnd_1
XPHY_141 vgnd vpwr scs8hd_tapvpwrvgnd_1
XPHY_152 vgnd vpwr scs8hd_tapvpwrvgnd_1
XPHY_163 vgnd vpwr scs8hd_tapvpwrvgnd_1
XPHY_174 vgnd vpwr scs8hd_tapvpwrvgnd_1
XPHY_185 vgnd vpwr scs8hd_tapvpwrvgnd_1
XPHY_196 vgnd vpwr scs8hd_tapvpwrvgnd_1
XANTENNA_mux_bottom_track_1.mux_l2_in_0_.TGATE_1_.scs8hd_ebufn_2_TEB _190_/Y vgnd
+ vpwr scs8hd_diode_2
XANTENNA__143__D _163_/D vgnd vpwr scs8hd_diode_2
XANTENNA__168__A _103_/X vgnd vpwr scs8hd_diode_2
XFILLER_22_105 vgnd vpwr scs8hd_decap_12
XFILLER_26_68 vgnd vpwr scs8hd_decap_12
XFILLER_42_56 vgnd vpwr scs8hd_decap_6
XFILLER_21_193 vgnd vpwr scs8hd_decap_4
XANTENNA__170__B _167_/X vgnd vpwr scs8hd_diode_2
XFILLER_8_197 vpwr vgnd scs8hd_fill_2
XFILLER_8_186 vpwr vgnd scs8hd_fill_2
XANTENNA_mux_right_track_14.mux_l2_in_0_.TGATE_0_.scs8hd_ebufn_2_A mux_right_track_14.mux_l1_in_0_.TGATE_0_.scs8hd_ebufn_2/Z
+ vgnd vpwr scs8hd_diode_2
XFILLER_35_274 vgnd vpwr scs8hd_decap_3
XFILLER_27_219 vpwr vgnd scs8hd_fill_2
XFILLER_12_15 vgnd vpwr scs8hd_decap_12
XANTENNA_mux_bottom_track_17.mux_l2_in_0_.TGATE_0_.scs8hd_ebufn_2_TEB _206_/A vgnd
+ vpwr scs8hd_diode_2
Xmux_right_track_8.INVTX1_1_.scs8hd_inv_1 chany_bottom_in[3] mux_right_track_8.INVTX1_1_.scs8hd_inv_1/Y
+ vgnd vpwr scs8hd_inv_1
Xmem_right_track_0.LATCH_1_.latch data_in _172_/A _105_/Y vgnd vpwr scs8hd_lpflow_inputisolatch_1
Xmux_right_track_16.mux_l1_in_0_.TGATE_1_.scs8hd_ebufn_2 mux_right_track_16.INVTX1_1_.scs8hd_inv_1/Y
+ _189_/Y mux_right_track_16.mux_l2_in_0_.TGATE_0_.scs8hd_ebufn_2/A vgnd vpwr scs8hd_ebufn_2
XFILLER_5_123 vgnd vpwr scs8hd_decap_4
XANTENNA_mux_right_track_12.mux_l2_in_0_.TGATE_0_.scs8hd_ebufn_2_TEB _184_/A vgnd
+ vpwr scs8hd_diode_2
XANTENNA__149__C _146_/C vgnd vpwr scs8hd_diode_2
XANTENNA_mux_right_track_10.mux_l1_in_0_.TGATE_0_.scs8hd_ebufn_2_A mux_right_track_10.INVTX1_0_.scs8hd_inv_1/Y
+ vgnd vpwr scs8hd_diode_2
XANTENNA__165__B _163_/X vgnd vpwr scs8hd_diode_2
XANTENNA__181__A _181_/A vgnd vpwr scs8hd_diode_2
XFILLER_4_93 vgnd vpwr scs8hd_decap_3
XFILLER_14_211 vgnd vpwr scs8hd_decap_3
XFILLER_9_27 vgnd vpwr scs8hd_decap_12
X_186_ _186_/A _186_/Y vgnd vpwr scs8hd_inv_8
XANTENNA_mux_right_track_4.mux_l1_in_0_.TGATE_1_.scs8hd_ebufn_2_TEB _177_/Y vgnd vpwr
+ scs8hd_diode_2
XANTENNA__176__A _176_/A vgnd vpwr scs8hd_diode_2
XFILLER_9_270 vgnd vpwr scs8hd_decap_6
XFILLER_34_68 vgnd vpwr scs8hd_decap_12
XFILLER_1_3 vgnd vpwr scs8hd_decap_12
XANTENNA_mux_bottom_track_3.mux_l2_in_0_.TGATE_0_.scs8hd_ebufn_2_TEB _192_/A vgnd
+ vpwr scs8hd_diode_2
X_169_ _103_/X _167_/X _159_/A _169_/Y vgnd vpwr scs8hd_nor3_4
X_238_ _238_/A chany_bottom_out[5] vgnd vpwr scs8hd_buf_2
Xmux_right_track_10.INVTX1_0_.scs8hd_inv_1 right_top_grid_pin_11_ mux_right_track_10.INVTX1_0_.scs8hd_inv_1/Y
+ vgnd vpwr scs8hd_inv_1
XANTENNA__146__D _102_/X vgnd vpwr scs8hd_diode_2
XFILLER_34_3 vgnd vpwr scs8hd_decap_12
Xmem_bottom_track_7.LATCH_0_.latch data_in _197_/A _156_/Y vgnd vpwr scs8hd_lpflow_inputisolatch_1
XANTENNA_mem_right_track_8.LATCH_1_.latch_D data_in vgnd vpwr scs8hd_diode_2
XFILLER_20_15 vgnd vpwr scs8hd_decap_12
XFILLER_28_166 vgnd vpwr scs8hd_decap_12
XANTENNA_mux_bottom_track_5.mux_l2_in_0_.TGATE_0_.scs8hd_ebufn_2_A mux_bottom_track_5.mux_l1_in_0_.TGATE_0_.scs8hd_ebufn_2/Z
+ vgnd vpwr scs8hd_diode_2
XFILLER_3_276 vgnd vpwr scs8hd_fill_1
XFILLER_3_254 vpwr vgnd scs8hd_fill_2
XANTENNA__157__C _146_/C vgnd vpwr scs8hd_diode_2
XFILLER_42_180 vgnd vpwr scs8hd_decap_6
XFILLER_40_117 vgnd vpwr scs8hd_decap_12
XFILLER_25_158 vpwr vgnd scs8hd_fill_2
XFILLER_25_147 vgnd vpwr scs8hd_decap_4
XFILLER_15_15 vgnd vpwr scs8hd_decap_12
XFILLER_15_59 vpwr vgnd scs8hd_fill_2
XFILLER_0_213 vpwr vgnd scs8hd_fill_2
XFILLER_0_202 vpwr vgnd scs8hd_fill_2
XFILLER_16_103 vgnd vpwr scs8hd_decap_4
XANTENNA_mux_bottom_track_1.mux_l1_in_0_.TGATE_0_.scs8hd_ebufn_2_A mux_bottom_track_1.INVTX1_0_.scs8hd_inv_1/Y
+ vgnd vpwr scs8hd_diode_2
XPHY_120 vgnd vpwr scs8hd_tapvpwrvgnd_1
XPHY_131 vgnd vpwr scs8hd_tapvpwrvgnd_1
XPHY_142 vgnd vpwr scs8hd_tapvpwrvgnd_1
XPHY_153 vgnd vpwr scs8hd_tapvpwrvgnd_1
XPHY_164 vgnd vpwr scs8hd_tapvpwrvgnd_1
XPHY_175 vgnd vpwr scs8hd_tapvpwrvgnd_1
XFILLER_16_147 vpwr vgnd scs8hd_fill_2
Xmux_right_track_0.mux_l2_in_0_.TGATE_0_.scs8hd_ebufn_2 mux_right_track_0.mux_l2_in_0_.TGATE_0_.scs8hd_ebufn_2/A
+ _172_/A mux_right_track_0.tap_buf4_0_.scs8hd_inv_1/A vgnd vpwr scs8hd_ebufn_2
XPHY_186 vgnd vpwr scs8hd_tapvpwrvgnd_1
XPHY_197 vgnd vpwr scs8hd_tapvpwrvgnd_1
XPHY_0 vgnd vpwr scs8hd_decap_3
XANTENNA__168__B _167_/X vgnd vpwr scs8hd_diode_2
XFILLER_22_117 vgnd vpwr scs8hd_decap_4
XANTENNA__184__A _184_/A vgnd vpwr scs8hd_diode_2
XFILLER_7_82 vpwr vgnd scs8hd_fill_2
XFILLER_21_161 vpwr vgnd scs8hd_fill_2
XFILLER_16_80 vgnd vpwr scs8hd_fill_1
XFILLER_12_150 vgnd vpwr scs8hd_fill_1
XFILLER_8_132 vgnd vpwr scs8hd_decap_4
XANTENNA_mux_right_track_6.mux_l1_in_0_.TGATE_0_.scs8hd_ebufn_2_TEB _179_/A vgnd vpwr
+ scs8hd_diode_2
XANTENNA__170__C _158_/A vgnd vpwr scs8hd_diode_2
XANTENNA__179__A _179_/A vgnd vpwr scs8hd_diode_2
XFILLER_35_220 vgnd vpwr scs8hd_decap_12
XFILLER_35_253 vpwr vgnd scs8hd_fill_2
XFILLER_12_27 vgnd vpwr scs8hd_decap_4
Xmux_right_track_12.tap_buf4_0_.scs8hd_inv_1 mux_right_track_12.tap_buf4_0_.scs8hd_inv_1/A
+ _228_/A vgnd vpwr scs8hd_inv_1
XFILLER_18_209 vgnd vpwr scs8hd_decap_3
XFILLER_41_245 vgnd vpwr scs8hd_decap_12
XFILLER_5_179 vpwr vgnd scs8hd_fill_2
XANTENNA__149__D _163_/D vgnd vpwr scs8hd_diode_2
Xmux_right_track_4.mux_l2_in_0_.TGATE_1_.scs8hd_ebufn_2 _223_/HI _176_/Y mux_right_track_4.tap_buf4_0_.scs8hd_inv_1/A
+ vgnd vpwr scs8hd_ebufn_2
XFILLER_23_59 vpwr vgnd scs8hd_fill_2
XFILLER_23_15 vgnd vpwr scs8hd_decap_12
XFILLER_2_149 vgnd vpwr scs8hd_decap_4
X_185_ _185_/A _185_/Y vgnd vpwr scs8hd_inv_8
XFILLER_9_39 vgnd vpwr scs8hd_decap_12
Xmux_right_track_6.INVTX1_1_.scs8hd_inv_1 chany_bottom_in[4] mux_right_track_6.INVTX1_1_.scs8hd_inv_1/Y
+ vgnd vpwr scs8hd_inv_1
XFILLER_1_193 vgnd vpwr scs8hd_decap_3
XANTENNA__192__A _192_/A vgnd vpwr scs8hd_diode_2
XFILLER_18_15 vgnd vpwr scs8hd_decap_12
Xmux_bottom_track_15.mux_l2_in_0_.TGATE_0_.scs8hd_ebufn_2 mux_bottom_track_15.mux_l1_in_0_.TGATE_0_.scs8hd_ebufn_2/Z
+ _204_/A mux_bottom_track_15.tap_buf4_0_.scs8hd_inv_1/A vgnd vpwr scs8hd_ebufn_2
XFILLER_11_237 vgnd vpwr scs8hd_fill_1
X_168_ _103_/X _167_/X _158_/A _168_/Y vgnd vpwr scs8hd_nor3_4
X_237_ _237_/A chany_bottom_out[6] vgnd vpwr scs8hd_buf_2
XFILLER_24_80 vgnd vpwr scs8hd_decap_12
X_099_ address[4] address[5] _100_/A vgnd vpwr scs8hd_or2_4
XFILLER_27_3 vgnd vpwr scs8hd_decap_12
XFILLER_37_123 vgnd vpwr scs8hd_decap_12
XFILLER_1_62 vgnd vpwr scs8hd_decap_8
XANTENNA__187__A _187_/A vgnd vpwr scs8hd_diode_2
XFILLER_20_27 vgnd vpwr scs8hd_decap_4
XANTENNA__097__A address[3] vgnd vpwr scs8hd_diode_2
XFILLER_28_178 vgnd vpwr scs8hd_decap_12
Xmem_bottom_track_15.LATCH_0_.latch data_in _205_/A _169_/Y vgnd vpwr scs8hd_lpflow_inputisolatch_1
XFILLER_10_93 vgnd vpwr scs8hd_fill_1
XFILLER_3_266 vpwr vgnd scs8hd_fill_2
XFILLER_3_222 vpwr vgnd scs8hd_fill_2
XANTENNA_mux_bottom_track_13.mux_l2_in_0_.TGATE_0_.scs8hd_ebufn_2_A mux_bottom_track_13.mux_l1_in_0_.TGATE_0_.scs8hd_ebufn_2/Z
+ vgnd vpwr scs8hd_diode_2
XFILLER_19_156 vpwr vgnd scs8hd_fill_2
XFILLER_19_101 vpwr vgnd scs8hd_fill_2
XANTENNA__157__D _163_/D vgnd vpwr scs8hd_diode_2
XFILLER_40_129 vgnd vpwr scs8hd_decap_12
XFILLER_15_27 vgnd vpwr scs8hd_decap_12
XFILLER_31_15 vgnd vpwr scs8hd_decap_12
XFILLER_31_59 vpwr vgnd scs8hd_fill_2
XFILLER_0_269 vpwr vgnd scs8hd_fill_2
XFILLER_0_258 vgnd vpwr scs8hd_decap_8
XFILLER_16_126 vpwr vgnd scs8hd_fill_2
XPHY_110 vgnd vpwr scs8hd_tapvpwrvgnd_1
XPHY_121 vgnd vpwr scs8hd_tapvpwrvgnd_1
XPHY_132 vgnd vpwr scs8hd_tapvpwrvgnd_1
XPHY_143 vgnd vpwr scs8hd_tapvpwrvgnd_1
XPHY_154 vgnd vpwr scs8hd_tapvpwrvgnd_1
XPHY_165 vgnd vpwr scs8hd_tapvpwrvgnd_1
XPHY_176 vgnd vpwr scs8hd_tapvpwrvgnd_1
XPHY_187 vgnd vpwr scs8hd_tapvpwrvgnd_1
XPHY_198 vgnd vpwr scs8hd_tapvpwrvgnd_1
XFILLER_24_170 vgnd vpwr scs8hd_decap_8
XPHY_1 vgnd vpwr scs8hd_decap_3
XANTENNA__168__C _158_/A vgnd vpwr scs8hd_diode_2
Xmux_bottom_track_17.INVTX1_1_.scs8hd_inv_1 bottom_left_grid_pin_15_ mux_bottom_track_17.INVTX1_1_.scs8hd_inv_1/Y
+ vgnd vpwr scs8hd_inv_1
Xmux_right_track_6.tap_buf4_0_.scs8hd_inv_1 mux_right_track_6.tap_buf4_0_.scs8hd_inv_1/A
+ _231_/A vgnd vpwr scs8hd_inv_1
XFILLER_38_251 vgnd vpwr scs8hd_decap_12
XFILLER_26_15 vgnd vpwr scs8hd_decap_12
XFILLER_21_140 vpwr vgnd scs8hd_fill_2
XFILLER_13_118 vpwr vgnd scs8hd_fill_2