* NGSPICE file created from sb_0__0_.ext - technology: sky130A

* Black-box entry subcircuit for sky130_fd_sc_hd__dfxtp_1 abstract view
.subckt sky130_fd_sc_hd__dfxtp_1 CLK D VGND VNB VPB VPWR Q
.ends

* Black-box entry subcircuit for sky130_fd_sc_hd__buf_2 abstract view
.subckt sky130_fd_sc_hd__buf_2 A VGND VNB VPB VPWR X
.ends

* Black-box entry subcircuit for sky130_fd_sc_hd__decap_12 abstract view
.subckt sky130_fd_sc_hd__decap_12 VGND VNB VPB VPWR
.ends

* Black-box entry subcircuit for sky130_fd_sc_hd__fill_1 abstract view
.subckt sky130_fd_sc_hd__fill_1 VGND VNB VPB VPWR
.ends

* Black-box entry subcircuit for sky130_fd_sc_hd__decap_3 abstract view
.subckt sky130_fd_sc_hd__decap_3 VGND VNB VPB VPWR
.ends

* Black-box entry subcircuit for sky130_fd_sc_hd__buf_4 abstract view
.subckt sky130_fd_sc_hd__buf_4 A VGND VNB VPB VPWR X
.ends

* Black-box entry subcircuit for sky130_fd_sc_hd__diode_2 abstract view
.subckt sky130_fd_sc_hd__diode_2 DIODE VGND VNB VPB VPWR
.ends

* Black-box entry subcircuit for sky130_fd_sc_hd__fill_2 abstract view
.subckt sky130_fd_sc_hd__fill_2 VGND VNB VPB VPWR
.ends

* Black-box entry subcircuit for sky130_fd_sc_hd__mux2_1 abstract view
.subckt sky130_fd_sc_hd__mux2_1 A0 A1 S VGND VNB VPB VPWR X
.ends

* Black-box entry subcircuit for sky130_fd_sc_hd__tapvpwrvgnd_1 abstract view
.subckt sky130_fd_sc_hd__tapvpwrvgnd_1 VGND VPWR
.ends

* Black-box entry subcircuit for sky130_fd_sc_hd__decap_4 abstract view
.subckt sky130_fd_sc_hd__decap_4 VGND VNB VPB VPWR
.ends

* Black-box entry subcircuit for sky130_fd_sc_hd__clkbuf_1 abstract view
.subckt sky130_fd_sc_hd__clkbuf_1 A VGND VNB VPB VPWR X
.ends

* Black-box entry subcircuit for sky130_fd_sc_hd__decap_6 abstract view
.subckt sky130_fd_sc_hd__decap_6 VGND VNB VPB VPWR
.ends

* Black-box entry subcircuit for sky130_fd_sc_hd__conb_1 abstract view
.subckt sky130_fd_sc_hd__conb_1 VGND VNB VPB VPWR HI LO
.ends

* Black-box entry subcircuit for sky130_fd_sc_hd__decap_8 abstract view
.subckt sky130_fd_sc_hd__decap_8 VGND VNB VPB VPWR
.ends

* Black-box entry subcircuit for sky130_fd_sc_hd__buf_8 abstract view
.subckt sky130_fd_sc_hd__buf_8 A VGND VNB VPB VPWR X
.ends

* Black-box entry subcircuit for sky130_fd_sc_hd__clkbuf_16 abstract view
.subckt sky130_fd_sc_hd__clkbuf_16 A VGND VNB VPB VPWR X
.ends

.subckt sb_0__0_ ccff_head ccff_tail chanx_right_in[0] chanx_right_in[10] chanx_right_in[11]
+ chanx_right_in[12] chanx_right_in[13] chanx_right_in[14] chanx_right_in[15] chanx_right_in[16]
+ chanx_right_in[17] chanx_right_in[18] chanx_right_in[19] chanx_right_in[1] chanx_right_in[2]
+ chanx_right_in[3] chanx_right_in[4] chanx_right_in[5] chanx_right_in[6] chanx_right_in[7]
+ chanx_right_in[8] chanx_right_in[9] chanx_right_out[0] chanx_right_out[10] chanx_right_out[11]
+ chanx_right_out[12] chanx_right_out[13] chanx_right_out[14] chanx_right_out[15]
+ chanx_right_out[16] chanx_right_out[17] chanx_right_out[18] chanx_right_out[19]
+ chanx_right_out[1] chanx_right_out[2] chanx_right_out[3] chanx_right_out[4] chanx_right_out[5]
+ chanx_right_out[6] chanx_right_out[7] chanx_right_out[8] chanx_right_out[9] chany_top_in[0]
+ chany_top_in[10] chany_top_in[11] chany_top_in[12] chany_top_in[13] chany_top_in[14]
+ chany_top_in[15] chany_top_in[16] chany_top_in[17] chany_top_in[18] chany_top_in[19]
+ chany_top_in[1] chany_top_in[2] chany_top_in[3] chany_top_in[4] chany_top_in[5]
+ chany_top_in[6] chany_top_in[7] chany_top_in[8] chany_top_in[9] chany_top_out[0]
+ chany_top_out[10] chany_top_out[11] chany_top_out[12] chany_top_out[13] chany_top_out[14]
+ chany_top_out[15] chany_top_out[16] chany_top_out[17] chany_top_out[18] chany_top_out[19]
+ chany_top_out[1] chany_top_out[2] chany_top_out[3] chany_top_out[4] chany_top_out[5]
+ chany_top_out[6] chany_top_out[7] chany_top_out[8] chany_top_out[9] prog_clk_0_E_in
+ right_bottom_grid_pin_11_ right_bottom_grid_pin_13_ right_bottom_grid_pin_15_ right_bottom_grid_pin_17_
+ right_bottom_grid_pin_1_ right_bottom_grid_pin_3_ right_bottom_grid_pin_5_ right_bottom_grid_pin_7_
+ right_bottom_grid_pin_9_ top_left_grid_pin_1_ VPWR VGND
Xmem_right_track_2.sky130_fd_sc_hd__dfxtp_1_0_ clkbuf_2_2_0_mem_right_track_0.prog_clk/X
+ mux_right_track_0.mux_l3_in_0_/S VGND VGND VPWR VPWR mux_right_track_2.mux_l1_in_0_/S
+ sky130_fd_sc_hd__dfxtp_1
Xmem_right_track_20.sky130_fd_sc_hd__dfxtp_1_1_ clkbuf_2_3_0_mem_right_track_0.prog_clk/X
+ mux_right_track_20.mux_l1_in_0_/S VGND VGND VPWR VPWR mux_right_track_20.mux_l2_in_0_/S
+ sky130_fd_sc_hd__dfxtp_1
X_83_ chanx_right_in[16] VGND VGND VPWR VPWR chany_top_out[15] sky130_fd_sc_hd__buf_2
XFILLER_3_56 VGND VGND VPWR VPWR sky130_fd_sc_hd__decap_12
XFILLER_9_137 VGND VGND VPWR VPWR sky130_fd_sc_hd__fill_1
XFILLER_10_169 VGND VGND VPWR VPWR sky130_fd_sc_hd__decap_3
XFILLER_12_98 VGND VGND VPWR VPWR sky130_fd_sc_hd__decap_12
X_66_ _66_/A VGND VGND VPWR VPWR chanx_right_out[18] sky130_fd_sc_hd__buf_2
Xmux_right_track_36.sky130_fd_sc_hd__buf_4_0_ mux_right_track_36.mux_l2_in_0_/X VGND
+ VGND VPWR VPWR _66_/A sky130_fd_sc_hd__buf_4
XANTENNA_mux_top_track_0.mux_l1_in_0__A0 chanx_right_in[1] VGND VGND VPWR VPWR sky130_fd_sc_hd__diode_2
XANTENNA_mux_right_track_4.mux_l1_in_0__A1 chany_top_in[1] VGND VGND VPWR VPWR sky130_fd_sc_hd__diode_2
XFILLER_15_206 VGND VGND VPWR VPWR sky130_fd_sc_hd__fill_2
XFILLER_23_42 VGND VGND VPWR VPWR sky130_fd_sc_hd__fill_2
Xmem_right_track_8.sky130_fd_sc_hd__dfxtp_1_1_ clkbuf_2_0_0_mem_right_track_0.prog_clk/X
+ mux_right_track_8.mux_l1_in_1_/S VGND VGND VPWR VPWR mux_right_track_8.mux_l2_in_0_/S
+ sky130_fd_sc_hd__dfxtp_1
XFILLER_2_110 VGND VGND VPWR VPWR sky130_fd_sc_hd__decap_12
XFILLER_9_44 VGND VGND VPWR VPWR sky130_fd_sc_hd__decap_12
X_49_ _49_/A VGND VGND VPWR VPWR chanx_right_out[1] sky130_fd_sc_hd__buf_2
XFILLER_7_202 VGND VGND VPWR VPWR sky130_fd_sc_hd__decap_12
XFILLER_18_86 VGND VGND VPWR VPWR sky130_fd_sc_hd__decap_12
XFILLER_20_98 VGND VGND VPWR VPWR sky130_fd_sc_hd__fill_1
XFILLER_13_3 VGND VGND VPWR VPWR sky130_fd_sc_hd__decap_12
XANTENNA_mux_right_track_2.mux_l2_in_1__A1 right_bottom_grid_pin_15_ VGND VGND VPWR
+ VPWR sky130_fd_sc_hd__diode_2
XFILLER_15_32 VGND VGND VPWR VPWR sky130_fd_sc_hd__decap_12
XFILLER_17_109 VGND VGND VPWR VPWR sky130_fd_sc_hd__fill_2
Xmux_right_track_38.mux_l1_in_0_ right_bottom_grid_pin_15_ chany_top_in[18] mux_right_track_38.mux_l1_in_0_/S
+ VGND VGND VPWR VPWR mux_right_track_38.mux_l1_in_0_/X sky130_fd_sc_hd__mux2_1
XPHY_170 VGND VPWR sky130_fd_sc_hd__tapvpwrvgnd_1
XPHY_181 VGND VPWR sky130_fd_sc_hd__tapvpwrvgnd_1
XPHY_192 VGND VPWR sky130_fd_sc_hd__tapvpwrvgnd_1
Xmem_right_track_20.sky130_fd_sc_hd__dfxtp_1_0_ clkbuf_2_3_0_mem_right_track_0.prog_clk/X
+ mux_right_track_18.mux_l2_in_0_/S VGND VGND VPWR VPWR mux_right_track_20.mux_l1_in_0_/S
+ sky130_fd_sc_hd__dfxtp_1
XFILLER_22_167 VGND VGND VPWR VPWR sky130_fd_sc_hd__decap_12
XFILLER_22_156 VGND VGND VPWR VPWR sky130_fd_sc_hd__fill_2
XFILLER_22_101 VGND VGND VPWR VPWR sky130_fd_sc_hd__decap_12
XFILLER_3_68 VGND VGND VPWR VPWR sky130_fd_sc_hd__decap_12
XFILLER_13_167 VGND VGND VPWR VPWR sky130_fd_sc_hd__decap_12
XFILLER_26_31 VGND VGND VPWR VPWR sky130_fd_sc_hd__fill_2
X_82_ chanx_right_in[15] VGND VGND VPWR VPWR chany_top_out[14] sky130_fd_sc_hd__buf_2
XFILLER_33_218 VGND VGND VPWR VPWR sky130_fd_sc_hd__decap_4
X_65_ _65_/A VGND VGND VPWR VPWR chanx_right_out[17] sky130_fd_sc_hd__buf_2
XFILLER_5_141 VGND VGND VPWR VPWR sky130_fd_sc_hd__decap_12
XFILLER_24_218 VGND VGND VPWR VPWR sky130_fd_sc_hd__decap_4
XANTENNA_mux_top_track_0.mux_l1_in_0__A1 top_left_grid_pin_1_ VGND VGND VPWR VPWR
+ sky130_fd_sc_hd__diode_2
XFILLER_23_32 VGND VGND VPWR VPWR sky130_fd_sc_hd__fill_1
Xmem_right_track_26.sky130_fd_sc_hd__dfxtp_1_1_ clkbuf_2_0_0_mem_right_track_0.prog_clk/X
+ mux_right_track_26.mux_l1_in_0_/S VGND VGND VPWR VPWR mux_right_track_26.mux_l2_in_0_/S
+ sky130_fd_sc_hd__dfxtp_1
Xmem_right_track_8.sky130_fd_sc_hd__dfxtp_1_0_ clkbuf_2_0_0_mem_right_track_0.prog_clk/X
+ mux_right_track_6.mux_l3_in_0_/S VGND VGND VPWR VPWR mux_right_track_8.mux_l1_in_1_/S
+ sky130_fd_sc_hd__dfxtp_1
XFILLER_9_56 VGND VGND VPWR VPWR sky130_fd_sc_hd__decap_12
X_48_ _48_/A VGND VGND VPWR VPWR chanx_right_out[0] sky130_fd_sc_hd__buf_2
Xclkbuf_2_2_0_mem_right_track_0.prog_clk clkbuf_2_3_0_mem_right_track_0.prog_clk/A
+ VGND VGND VPWR VPWR clkbuf_2_2_0_mem_right_track_0.prog_clk/X sky130_fd_sc_hd__clkbuf_1
XFILLER_18_98 VGND VGND VPWR VPWR sky130_fd_sc_hd__fill_2
XFILLER_29_129 VGND VGND VPWR VPWR sky130_fd_sc_hd__fill_1
XFILLER_20_88 VGND VGND VPWR VPWR sky130_fd_sc_hd__fill_2
XANTENNA_mem_top_track_0.sky130_fd_sc_hd__dfxtp_1_0__D ccff_head VGND VGND VPWR VPWR
+ sky130_fd_sc_hd__diode_2
XFILLER_28_184 VGND VGND VPWR VPWR sky130_fd_sc_hd__decap_12
XFILLER_19_151 VGND VGND VPWR VPWR sky130_fd_sc_hd__fill_2
XFILLER_15_44 VGND VGND VPWR VPWR sky130_fd_sc_hd__decap_12
XPHY_160 VGND VPWR sky130_fd_sc_hd__tapvpwrvgnd_1
XPHY_171 VGND VPWR sky130_fd_sc_hd__tapvpwrvgnd_1
XPHY_182 VGND VPWR sky130_fd_sc_hd__tapvpwrvgnd_1
XPHY_193 VGND VPWR sky130_fd_sc_hd__tapvpwrvgnd_1
XFILLER_31_54 VGND VGND VPWR VPWR sky130_fd_sc_hd__fill_1
XFILLER_31_102 VGND VGND VPWR VPWR sky130_fd_sc_hd__decap_6
XFILLER_31_124 VGND VGND VPWR VPWR sky130_fd_sc_hd__fill_2
XFILLER_31_179 VGND VGND VPWR VPWR sky130_fd_sc_hd__decap_6
XANTENNA_mux_right_track_6.mux_l1_in_1__A0 right_bottom_grid_pin_11_ VGND VGND VPWR
+ VPWR sky130_fd_sc_hd__diode_2
XFILLER_22_113 VGND VGND VPWR VPWR sky130_fd_sc_hd__decap_4
XFILLER_13_179 VGND VGND VPWR VPWR sky130_fd_sc_hd__decap_12
XFILLER_26_21 VGND VGND VPWR VPWR sky130_fd_sc_hd__fill_1
X_81_ chanx_right_in[14] VGND VGND VPWR VPWR chany_top_out[13] sky130_fd_sc_hd__buf_2
X_64_ _64_/A VGND VGND VPWR VPWR chanx_right_out[16] sky130_fd_sc_hd__buf_2
XFILLER_15_219 VGND VGND VPWR VPWR sky130_fd_sc_hd__decap_4
Xmem_right_track_26.sky130_fd_sc_hd__dfxtp_1_0_ clkbuf_2_0_0_mem_right_track_0.prog_clk/X
+ mux_right_track_24.mux_l2_in_0_/S VGND VGND VPWR VPWR mux_right_track_26.mux_l1_in_0_/S
+ sky130_fd_sc_hd__dfxtp_1
XFILLER_0_15 VGND VGND VPWR VPWR sky130_fd_sc_hd__decap_12
XFILLER_2_123 VGND VGND VPWR VPWR sky130_fd_sc_hd__decap_12
XFILLER_3_3 VGND VGND VPWR VPWR sky130_fd_sc_hd__decap_12
X_47_ VGND VGND VPWR VPWR _47_/HI _47_/LO sky130_fd_sc_hd__conb_1
XFILLER_9_68 VGND VGND VPWR VPWR sky130_fd_sc_hd__decap_12
XFILLER_1_80 VGND VGND VPWR VPWR sky130_fd_sc_hd__decap_12
XFILLER_4_218 VGND VGND VPWR VPWR sky130_fd_sc_hd__decap_4
XFILLER_20_45 VGND VGND VPWR VPWR sky130_fd_sc_hd__decap_12
XFILLER_29_32 VGND VGND VPWR VPWR sky130_fd_sc_hd__decap_12
XFILLER_28_196 VGND VGND VPWR VPWR sky130_fd_sc_hd__fill_2
XFILLER_19_196 VGND VGND VPWR VPWR sky130_fd_sc_hd__fill_2
XFILLER_15_56 VGND VGND VPWR VPWR sky130_fd_sc_hd__decap_12
XFILLER_16_111 VGND VGND VPWR VPWR sky130_fd_sc_hd__decap_8
XFILLER_31_88 VGND VGND VPWR VPWR sky130_fd_sc_hd__decap_4
XFILLER_25_188 VGND VGND VPWR VPWR sky130_fd_sc_hd__fill_2
XFILLER_25_133 VGND VGND VPWR VPWR sky130_fd_sc_hd__fill_2
XPHY_150 VGND VPWR sky130_fd_sc_hd__tapvpwrvgnd_1
XPHY_161 VGND VPWR sky130_fd_sc_hd__tapvpwrvgnd_1
XPHY_172 VGND VPWR sky130_fd_sc_hd__tapvpwrvgnd_1
XPHY_183 VGND VPWR sky130_fd_sc_hd__tapvpwrvgnd_1
XANTENNA_mux_right_track_6.mux_l1_in_1__A1 right_bottom_grid_pin_7_ VGND VGND VPWR
+ VPWR sky130_fd_sc_hd__diode_2
XFILLER_13_114 VGND VGND VPWR VPWR sky130_fd_sc_hd__fill_2
XFILLER_30_180 VGND VGND VPWR VPWR sky130_fd_sc_hd__decap_3
XFILLER_26_99 VGND VGND VPWR VPWR sky130_fd_sc_hd__decap_3
X_80_ _80_/A VGND VGND VPWR VPWR chany_top_out[12] sky130_fd_sc_hd__buf_2
XFILLER_3_15 VGND VGND VPWR VPWR sky130_fd_sc_hd__decap_12
XFILLER_8_151 VGND VGND VPWR VPWR sky130_fd_sc_hd__fill_2
XFILLER_5_154 VGND VGND VPWR VPWR sky130_fd_sc_hd__decap_12
XFILLER_33_209 VGND VGND VPWR VPWR sky130_fd_sc_hd__fill_2
X_63_ _63_/A VGND VGND VPWR VPWR chanx_right_out[15] sky130_fd_sc_hd__buf_2
XFILLER_24_209 VGND VGND VPWR VPWR sky130_fd_sc_hd__decap_4
Xprog_clk_0_FTB00 prog_clk_0_E_in VGND VGND VPWR VPWR prog_clk_0_FTB00/X sky130_fd_sc_hd__buf_8
XANTENNA_mux_right_track_14.mux_l1_in_0__A0 right_bottom_grid_pin_7_ VGND VGND VPWR
+ VPWR sky130_fd_sc_hd__diode_2
XFILLER_0_27 VGND VGND VPWR VPWR sky130_fd_sc_hd__decap_4
XFILLER_2_135 VGND VGND VPWR VPWR sky130_fd_sc_hd__decap_12
X_46_ VGND VGND VPWR VPWR _46_/HI _46_/LO sky130_fd_sc_hd__conb_1
XFILLER_1_190 VGND VGND VPWR VPWR sky130_fd_sc_hd__decap_12
XFILLER_29_3 VGND VGND VPWR VPWR sky130_fd_sc_hd__decap_12
XFILLER_11_212 VGND VGND VPWR VPWR sky130_fd_sc_hd__fill_2
Xmux_right_track_10.mux_l2_in_0_ _37_/HI mux_right_track_10.mux_l1_in_0_/X mux_right_track_10.mux_l2_in_0_/S
+ VGND VGND VPWR VPWR mux_right_track_10.mux_l2_in_0_/X sky130_fd_sc_hd__mux2_1
X_29_ VGND VGND VPWR VPWR _29_/HI _29_/LO sky130_fd_sc_hd__conb_1
XFILLER_4_208 VGND VGND VPWR VPWR sky130_fd_sc_hd__decap_6
XFILLER_29_109 VGND VGND VPWR VPWR sky130_fd_sc_hd__fill_2
XFILLER_6_15 VGND VGND VPWR VPWR sky130_fd_sc_hd__decap_12
XFILLER_6_59 VGND VGND VPWR VPWR sky130_fd_sc_hd__fill_2
XFILLER_29_77 VGND VGND VPWR VPWR sky130_fd_sc_hd__decap_12
XFILLER_29_44 VGND VGND VPWR VPWR sky130_fd_sc_hd__decap_12
XFILLER_28_120 VGND VGND VPWR VPWR sky130_fd_sc_hd__fill_2
XFILLER_20_57 VGND VGND VPWR VPWR sky130_fd_sc_hd__decap_4
XFILLER_19_186 VGND VGND VPWR VPWR sky130_fd_sc_hd__fill_2
XFILLER_0_211 VGND VGND VPWR VPWR sky130_fd_sc_hd__decap_6
XFILLER_0_222 VGND VGND VPWR VPWR sky130_fd_sc_hd__fill_1
XFILLER_15_68 VGND VGND VPWR VPWR sky130_fd_sc_hd__decap_6
XPHY_140 VGND VPWR sky130_fd_sc_hd__tapvpwrvgnd_1
XPHY_151 VGND VPWR sky130_fd_sc_hd__tapvpwrvgnd_1
XPHY_162 VGND VPWR sky130_fd_sc_hd__tapvpwrvgnd_1
XPHY_173 VGND VPWR sky130_fd_sc_hd__tapvpwrvgnd_1
XPHY_184 VGND VPWR sky130_fd_sc_hd__tapvpwrvgnd_1
XFILLER_11_3 VGND VGND VPWR VPWR sky130_fd_sc_hd__decap_12
XFILLER_16_101 VGND VGND VPWR VPWR sky130_fd_sc_hd__fill_1
XFILLER_16_123 VGND VGND VPWR VPWR sky130_fd_sc_hd__decap_12
XFILLER_7_80 VGND VGND VPWR VPWR sky130_fd_sc_hd__decap_12
XFILLER_26_78 VGND VGND VPWR VPWR sky130_fd_sc_hd__decap_4
XFILLER_26_45 VGND VGND VPWR VPWR sky130_fd_sc_hd__decap_12
XFILLER_3_27 VGND VGND VPWR VPWR sky130_fd_sc_hd__decap_4
XFILLER_21_192 VGND VGND VPWR VPWR sky130_fd_sc_hd__fill_2
XANTENNA_mux_right_track_22.mux_l1_in_0__A0 right_bottom_grid_pin_15_ VGND VGND VPWR
+ VPWR sky130_fd_sc_hd__diode_2
XFILLER_8_141 VGND VGND VPWR VPWR sky130_fd_sc_hd__fill_1
XFILLER_10_107 VGND VGND VPWR VPWR sky130_fd_sc_hd__fill_2
XFILLER_10_118 VGND VGND VPWR VPWR sky130_fd_sc_hd__decap_4
XFILLER_18_218 VGND VGND VPWR VPWR sky130_fd_sc_hd__decap_4
X_62_ _62_/A VGND VGND VPWR VPWR chanx_right_out[14] sky130_fd_sc_hd__buf_2
XFILLER_5_166 VGND VGND VPWR VPWR sky130_fd_sc_hd__decap_12
XANTENNA_mux_right_track_14.mux_l1_in_0__A1 chany_top_in[6] VGND VGND VPWR VPWR sky130_fd_sc_hd__diode_2
XFILLER_2_147 VGND VGND VPWR VPWR sky130_fd_sc_hd__decap_12
XFILLER_23_210 VGND VGND VPWR VPWR sky130_fd_sc_hd__decap_4
XFILLER_23_79 VGND VGND VPWR VPWR sky130_fd_sc_hd__fill_2
XFILLER_9_15 VGND VGND VPWR VPWR sky130_fd_sc_hd__decap_12
X_45_ VGND VGND VPWR VPWR _45_/HI _45_/LO sky130_fd_sc_hd__conb_1
XFILLER_20_213 VGND VGND VPWR VPWR sky130_fd_sc_hd__fill_2
XFILLER_20_202 VGND VGND VPWR VPWR sky130_fd_sc_hd__decap_3
XANTENNA_mux_right_track_38.mux_l2_in_0__S ccff_tail VGND VGND VPWR VPWR sky130_fd_sc_hd__diode_2
X_28_ VGND VGND VPWR VPWR _28_/HI _28_/LO sky130_fd_sc_hd__conb_1
XFILLER_1_93 VGND VGND VPWR VPWR sky130_fd_sc_hd__decap_12
XFILLER_29_89 VGND VGND VPWR VPWR sky130_fd_sc_hd__decap_3
XFILLER_29_56 VGND VGND VPWR VPWR sky130_fd_sc_hd__decap_4
XFILLER_3_220 VGND VGND VPWR VPWR sky130_fd_sc_hd__decap_3
XFILLER_6_27 VGND VGND VPWR VPWR sky130_fd_sc_hd__decap_12
XFILLER_19_154 VGND VGND VPWR VPWR sky130_fd_sc_hd__decap_4
XFILLER_19_143 VGND VGND VPWR VPWR sky130_fd_sc_hd__decap_8
Xmem_right_track_12.sky130_fd_sc_hd__dfxtp_1_1_ clkbuf_2_1_0_mem_right_track_0.prog_clk/X
+ mux_right_track_12.mux_l1_in_0_/S VGND VGND VPWR VPWR mux_right_track_12.mux_l2_in_0_/S
+ sky130_fd_sc_hd__dfxtp_1
Xmux_top_track_0.sky130_fd_sc_hd__buf_4_0_ mux_top_track_0.mux_l2_in_0_/X VGND VGND
+ VPWR VPWR _68_/A sky130_fd_sc_hd__buf_4
Xmux_right_track_10.mux_l1_in_0_ right_bottom_grid_pin_3_ chany_top_in[4] mux_right_track_10.mux_l1_in_0_/S
+ VGND VGND VPWR VPWR mux_right_track_10.mux_l1_in_0_/X sky130_fd_sc_hd__mux2_1
Xmux_right_track_8.mux_l2_in_0_ mux_right_track_8.mux_l1_in_1_/X mux_right_track_8.mux_l1_in_0_/X
+ mux_right_track_8.mux_l2_in_0_/S VGND VGND VPWR VPWR mux_right_track_8.mux_l2_in_0_/X
+ sky130_fd_sc_hd__mux2_1
Xmux_top_track_0.mux_l2_in_0_ _32_/HI mux_top_track_0.mux_l1_in_0_/X mux_top_track_0.mux_l2_in_0_/S
+ VGND VGND VPWR VPWR mux_top_track_0.mux_l2_in_0_/X sky130_fd_sc_hd__mux2_1
XPHY_130 VGND VPWR sky130_fd_sc_hd__tapvpwrvgnd_1
XPHY_141 VGND VPWR sky130_fd_sc_hd__tapvpwrvgnd_1
XPHY_152 VGND VPWR sky130_fd_sc_hd__tapvpwrvgnd_1
XPHY_163 VGND VPWR sky130_fd_sc_hd__tapvpwrvgnd_1
XPHY_174 VGND VPWR sky130_fd_sc_hd__tapvpwrvgnd_1
XPHY_185 VGND VPWR sky130_fd_sc_hd__tapvpwrvgnd_1
Xmux_right_track_22.mux_l2_in_0_ _44_/HI mux_right_track_22.mux_l1_in_0_/X mux_right_track_22.mux_l2_in_0_/S
+ VGND VGND VPWR VPWR mux_right_track_22.mux_l2_in_0_/X sky130_fd_sc_hd__mux2_1
XANTENNA_mux_right_track_30.mux_l1_in_0__A0 right_bottom_grid_pin_7_ VGND VGND VPWR
+ VPWR sky130_fd_sc_hd__diode_2
XFILLER_30_193 VGND VGND VPWR VPWR sky130_fd_sc_hd__decap_3
XFILLER_22_138 VGND VGND VPWR VPWR sky130_fd_sc_hd__fill_2
XFILLER_26_57 VGND VGND VPWR VPWR sky130_fd_sc_hd__decap_4
XFILLER_26_35 VGND VGND VPWR VPWR sky130_fd_sc_hd__decap_4
XFILLER_21_171 VGND VGND VPWR VPWR sky130_fd_sc_hd__decap_4
XFILLER_8_120 VGND VGND VPWR VPWR sky130_fd_sc_hd__fill_2
XFILLER_12_182 VGND VGND VPWR VPWR sky130_fd_sc_hd__fill_1
XFILLER_27_219 VGND VGND VPWR VPWR sky130_fd_sc_hd__decap_4
Xmux_right_track_8.mux_l1_in_1_ _31_/HI right_bottom_grid_pin_17_ mux_right_track_8.mux_l1_in_1_/S
+ VGND VGND VPWR VPWR mux_right_track_8.mux_l1_in_1_/X sky130_fd_sc_hd__mux2_1
XANTENNA_mux_right_track_22.mux_l1_in_0__A1 chany_top_in[10] VGND VGND VPWR VPWR sky130_fd_sc_hd__diode_2
XFILLER_12_15 VGND VGND VPWR VPWR sky130_fd_sc_hd__decap_12
XFILLER_12_59 VGND VGND VPWR VPWR sky130_fd_sc_hd__fill_2
X_61_ _61_/A VGND VGND VPWR VPWR chanx_right_out[13] sky130_fd_sc_hd__buf_2
XFILLER_5_178 VGND VGND VPWR VPWR sky130_fd_sc_hd__decap_12
XFILLER_32_200 VGND VGND VPWR VPWR sky130_fd_sc_hd__decap_3
XFILLER_32_222 VGND VGND VPWR VPWR sky130_fd_sc_hd__fill_1
XFILLER_23_47 VGND VGND VPWR VPWR sky130_fd_sc_hd__decap_12
XFILLER_2_159 VGND VGND VPWR VPWR sky130_fd_sc_hd__decap_12
XFILLER_9_27 VGND VGND VPWR VPWR sky130_fd_sc_hd__decap_4
XFILLER_13_80 VGND VGND VPWR VPWR sky130_fd_sc_hd__decap_12
XFILLER_14_200 VGND VGND VPWR VPWR sky130_fd_sc_hd__fill_2
XFILLER_14_211 VGND VGND VPWR VPWR sky130_fd_sc_hd__decap_3
XFILLER_14_222 VGND VGND VPWR VPWR sky130_fd_sc_hd__fill_1
X_44_ VGND VGND VPWR VPWR _44_/HI _44_/LO sky130_fd_sc_hd__conb_1
XFILLER_1_3 VGND VGND VPWR VPWR sky130_fd_sc_hd__decap_12
X_27_ VGND VGND VPWR VPWR _27_/HI _27_/LO sky130_fd_sc_hd__conb_1
Xmux_right_track_10.sky130_fd_sc_hd__buf_4_0_ mux_right_track_10.mux_l2_in_0_/X VGND
+ VGND VPWR VPWR _53_/A sky130_fd_sc_hd__buf_4
XFILLER_20_15 VGND VGND VPWR VPWR sky130_fd_sc_hd__decap_12
XFILLER_6_39 VGND VGND VPWR VPWR sky130_fd_sc_hd__decap_12
XFILLER_19_133 VGND VGND VPWR VPWR sky130_fd_sc_hd__decap_8
Xmem_right_track_12.sky130_fd_sc_hd__dfxtp_1_0_ clkbuf_2_1_0_mem_right_track_0.prog_clk/X
+ mux_right_track_10.mux_l2_in_0_/S VGND VGND VPWR VPWR mux_right_track_12.mux_l1_in_0_/S
+ sky130_fd_sc_hd__dfxtp_1
XFILLER_15_15 VGND VGND VPWR VPWR sky130_fd_sc_hd__decap_12
XFILLER_33_180 VGND VGND VPWR VPWR sky130_fd_sc_hd__decap_6
XPHY_120 VGND VPWR sky130_fd_sc_hd__tapvpwrvgnd_1
XPHY_131 VGND VPWR sky130_fd_sc_hd__tapvpwrvgnd_1
XPHY_142 VGND VPWR sky130_fd_sc_hd__tapvpwrvgnd_1
XPHY_153 VGND VPWR sky130_fd_sc_hd__tapvpwrvgnd_1
XPHY_164 VGND VPWR sky130_fd_sc_hd__tapvpwrvgnd_1
XPHY_175 VGND VPWR sky130_fd_sc_hd__tapvpwrvgnd_1
XPHY_186 VGND VPWR sky130_fd_sc_hd__tapvpwrvgnd_1
XPHY_0 VGND VGND VPWR VPWR sky130_fd_sc_hd__decap_3
XANTENNA_mux_right_track_30.mux_l1_in_0__A1 chany_top_in[14] VGND VGND VPWR VPWR sky130_fd_sc_hd__diode_2
XFILLER_7_93 VGND VGND VPWR VPWR sky130_fd_sc_hd__decap_12
XFILLER_15_180 VGND VGND VPWR VPWR sky130_fd_sc_hd__decap_12
XFILLER_22_117 VGND VGND VPWR VPWR sky130_fd_sc_hd__fill_1
XFILLER_8_187 VGND VGND VPWR VPWR sky130_fd_sc_hd__fill_2
XFILLER_27_209 VGND VGND VPWR VPWR sky130_fd_sc_hd__decap_4
Xmux_right_track_8.mux_l1_in_0_ right_bottom_grid_pin_1_ chany_top_in[3] mux_right_track_8.mux_l1_in_1_/S
+ VGND VGND VPWR VPWR mux_right_track_8.mux_l1_in_0_/X sky130_fd_sc_hd__mux2_1
XFILLER_12_27 VGND VGND VPWR VPWR sky130_fd_sc_hd__decap_12
X_60_ _60_/A VGND VGND VPWR VPWR chanx_right_out[12] sky130_fd_sc_hd__buf_2
Xmem_right_track_18.sky130_fd_sc_hd__dfxtp_1_1_ clkbuf_2_1_0_mem_right_track_0.prog_clk/X
+ mux_right_track_18.mux_l1_in_0_/S VGND VGND VPWR VPWR mux_right_track_18.mux_l2_in_0_/S
+ sky130_fd_sc_hd__dfxtp_1
Xmux_right_track_22.mux_l1_in_0_ right_bottom_grid_pin_15_ chany_top_in[10] mux_right_track_22.mux_l1_in_0_/S
+ VGND VGND VPWR VPWR mux_right_track_22.mux_l1_in_0_/X sky130_fd_sc_hd__mux2_1
Xmux_top_track_0.mux_l1_in_0_ chanx_right_in[1] top_left_grid_pin_1_ mux_top_track_0.mux_l1_in_0_/S
+ VGND VGND VPWR VPWR mux_top_track_0.mux_l1_in_0_/X sky130_fd_sc_hd__mux2_1
XFILLER_27_90 VGND VGND VPWR VPWR sky130_fd_sc_hd__fill_2
Xmux_right_track_34.mux_l2_in_0_ _26_/HI mux_right_track_34.mux_l1_in_0_/X mux_right_track_34.mux_l2_in_0_/S
+ VGND VGND VPWR VPWR mux_right_track_34.mux_l2_in_0_/X sky130_fd_sc_hd__mux2_1
XFILLER_23_59 VGND VGND VPWR VPWR sky130_fd_sc_hd__decap_6
XFILLER_23_15 VGND VGND VPWR VPWR sky130_fd_sc_hd__decap_12
Xmux_right_track_8.sky130_fd_sc_hd__buf_4_0_ mux_right_track_8.mux_l2_in_0_/X VGND
+ VGND VPWR VPWR _52_/A sky130_fd_sc_hd__buf_4
X_43_ VGND VGND VPWR VPWR _43_/HI _43_/LO sky130_fd_sc_hd__conb_1
XFILLER_7_219 VGND VGND VPWR VPWR sky130_fd_sc_hd__decap_4
XFILLER_18_15 VGND VGND VPWR VPWR sky130_fd_sc_hd__decap_12
XFILLER_18_59 VGND VGND VPWR VPWR sky130_fd_sc_hd__fill_2
XFILLER_27_3 VGND VGND VPWR VPWR sky130_fd_sc_hd__decap_4
XFILLER_24_91 VGND VGND VPWR VPWR sky130_fd_sc_hd__decap_12
X_26_ VGND VGND VPWR VPWR _26_/HI _26_/LO sky130_fd_sc_hd__conb_1
XFILLER_29_69 VGND VGND VPWR VPWR sky130_fd_sc_hd__fill_2
XFILLER_28_123 VGND VGND VPWR VPWR sky130_fd_sc_hd__decap_12
XFILLER_20_27 VGND VGND VPWR VPWR sky130_fd_sc_hd__fill_2
XFILLER_19_167 VGND VGND VPWR VPWR sky130_fd_sc_hd__fill_2
XFILLER_19_123 VGND VGND VPWR VPWR sky130_fd_sc_hd__fill_2
XFILLER_19_91 VGND VGND VPWR VPWR sky130_fd_sc_hd__fill_1
Xmux_right_track_32.sky130_fd_sc_hd__buf_4_0_ mux_right_track_32.mux_l2_in_0_/X VGND
+ VGND VPWR VPWR _64_/A sky130_fd_sc_hd__buf_4
XFILLER_15_27 VGND VGND VPWR VPWR sky130_fd_sc_hd__decap_4
XFILLER_25_115 VGND VGND VPWR VPWR sky130_fd_sc_hd__fill_2
XPHY_110 VGND VPWR sky130_fd_sc_hd__tapvpwrvgnd_1
XPHY_121 VGND VPWR sky130_fd_sc_hd__tapvpwrvgnd_1
XPHY_132 VGND VPWR sky130_fd_sc_hd__tapvpwrvgnd_1
XPHY_143 VGND VPWR sky130_fd_sc_hd__tapvpwrvgnd_1
XPHY_154 VGND VPWR sky130_fd_sc_hd__tapvpwrvgnd_1
XPHY_165 VGND VPWR sky130_fd_sc_hd__tapvpwrvgnd_1
XPHY_176 VGND VPWR sky130_fd_sc_hd__tapvpwrvgnd_1
XPHY_187 VGND VPWR sky130_fd_sc_hd__tapvpwrvgnd_1
XFILLER_31_15 VGND VGND VPWR VPWR sky130_fd_sc_hd__decap_12
XFILLER_31_48 VGND VGND VPWR VPWR sky130_fd_sc_hd__decap_6
XPHY_1 VGND VGND VPWR VPWR sky130_fd_sc_hd__decap_3
XFILLER_15_192 VGND VGND VPWR VPWR sky130_fd_sc_hd__fill_1
XFILLER_30_151 VGND VGND VPWR VPWR sky130_fd_sc_hd__decap_12
XFILLER_26_15 VGND VGND VPWR VPWR sky130_fd_sc_hd__decap_6
Xmux_right_track_26.sky130_fd_sc_hd__buf_4_0_ mux_right_track_26.mux_l2_in_0_/X VGND
+ VGND VPWR VPWR _61_/A sky130_fd_sc_hd__buf_4
XFILLER_8_155 VGND VGND VPWR VPWR sky130_fd_sc_hd__decap_12
XFILLER_12_184 VGND VGND VPWR VPWR sky130_fd_sc_hd__decap_12
XFILLER_32_91 VGND VGND VPWR VPWR sky130_fd_sc_hd__fill_2
XFILLER_12_39 VGND VGND VPWR VPWR sky130_fd_sc_hd__decap_12
Xmem_right_track_18.sky130_fd_sc_hd__dfxtp_1_0_ clkbuf_2_1_0_mem_right_track_0.prog_clk/X
+ mux_right_track_16.mux_l2_in_0_/S VGND VGND VPWR VPWR mux_right_track_18.mux_l1_in_0_/S
+ sky130_fd_sc_hd__dfxtp_1
XFILLER_4_51 VGND VGND VPWR VPWR sky130_fd_sc_hd__decap_8
XFILLER_4_62 VGND VGND VPWR VPWR sky130_fd_sc_hd__decap_12
XFILLER_32_213 VGND VGND VPWR VPWR sky130_fd_sc_hd__fill_1
XFILLER_23_202 VGND VGND VPWR VPWR sky130_fd_sc_hd__fill_2
XFILLER_23_27 VGND VGND VPWR VPWR sky130_fd_sc_hd__decap_4
X_42_ VGND VGND VPWR VPWR _42_/HI _42_/LO sky130_fd_sc_hd__conb_1
XFILLER_13_93 VGND VGND VPWR VPWR sky130_fd_sc_hd__decap_4
Xmem_right_track_30.sky130_fd_sc_hd__dfxtp_1_1_ clkbuf_2_1_0_mem_right_track_0.prog_clk/X
+ mux_right_track_30.mux_l1_in_0_/S VGND VGND VPWR VPWR mux_right_track_30.mux_l2_in_0_/S
+ sky130_fd_sc_hd__dfxtp_1
XFILLER_18_27 VGND VGND VPWR VPWR sky130_fd_sc_hd__decap_12
Xmux_right_track_34.mux_l1_in_0_ right_bottom_grid_pin_11_ chany_top_in[16] mux_right_track_34.mux_l1_in_0_/S
+ VGND VGND VPWR VPWR mux_right_track_34.mux_l1_in_0_/X sky130_fd_sc_hd__mux2_1
X_25_ VGND VGND VPWR VPWR _25_/HI _25_/LO sky130_fd_sc_hd__conb_1
XFILLER_29_15 VGND VGND VPWR VPWR sky130_fd_sc_hd__decap_12
XFILLER_28_135 VGND VGND VPWR VPWR sky130_fd_sc_hd__decap_12
XANTENNA_mux_right_track_24.mux_l1_in_1__A1 right_bottom_grid_pin_17_ VGND VGND VPWR
+ VPWR sky130_fd_sc_hd__diode_2
XPHY_100 VGND VPWR sky130_fd_sc_hd__tapvpwrvgnd_1
XFILLER_16_138 VGND VGND VPWR VPWR sky130_fd_sc_hd__decap_12
XFILLER_31_27 VGND VGND VPWR VPWR sky130_fd_sc_hd__decap_4
XPHY_2 VGND VGND VPWR VPWR sky130_fd_sc_hd__decap_3
XPHY_111 VGND VPWR sky130_fd_sc_hd__tapvpwrvgnd_1
XPHY_122 VGND VPWR sky130_fd_sc_hd__tapvpwrvgnd_1
XPHY_133 VGND VPWR sky130_fd_sc_hd__tapvpwrvgnd_1
XPHY_144 VGND VPWR sky130_fd_sc_hd__tapvpwrvgnd_1
XPHY_155 VGND VPWR sky130_fd_sc_hd__tapvpwrvgnd_1
XPHY_166 VGND VPWR sky130_fd_sc_hd__tapvpwrvgnd_1
XPHY_177 VGND VPWR sky130_fd_sc_hd__tapvpwrvgnd_1
XPHY_188 VGND VPWR sky130_fd_sc_hd__tapvpwrvgnd_1
XANTENNA_mux_right_track_0.mux_l1_in_0__A0 right_bottom_grid_pin_1_ VGND VGND VPWR
+ VPWR sky130_fd_sc_hd__diode_2
XFILLER_24_171 VGND VGND VPWR VPWR sky130_fd_sc_hd__decap_12
XFILLER_21_93 VGND VGND VPWR VPWR sky130_fd_sc_hd__decap_3
XFILLER_21_163 VGND VGND VPWR VPWR sky130_fd_sc_hd__fill_2
XFILLER_21_152 VGND VGND VPWR VPWR sky130_fd_sc_hd__fill_1
XFILLER_8_167 VGND VGND VPWR VPWR sky130_fd_sc_hd__decap_12
XFILLER_12_196 VGND VGND VPWR VPWR sky130_fd_sc_hd__decap_6
XFILLER_16_93 VGND VGND VPWR VPWR sky130_fd_sc_hd__decap_8
XFILLER_26_222 VGND VGND VPWR VPWR sky130_fd_sc_hd__fill_1
XFILLER_4_74 VGND VGND VPWR VPWR sky130_fd_sc_hd__decap_12
XFILLER_17_200 VGND VGND VPWR VPWR sky130_fd_sc_hd__fill_2
X_41_ VGND VGND VPWR VPWR _41_/HI _41_/LO sky130_fd_sc_hd__conb_1
XFILLER_18_39 VGND VGND VPWR VPWR sky130_fd_sc_hd__decap_12
Xmem_right_track_30.sky130_fd_sc_hd__dfxtp_1_0_ clkbuf_2_1_0_mem_right_track_0.prog_clk/X
+ mux_right_track_28.mux_l2_in_0_/S VGND VGND VPWR VPWR mux_right_track_30.mux_l1_in_0_/S
+ sky130_fd_sc_hd__dfxtp_1
X_24_ VGND VGND VPWR VPWR _24_/HI _24_/LO sky130_fd_sc_hd__conb_1
XFILLER_3_202 VGND VGND VPWR VPWR sky130_fd_sc_hd__decap_12
XFILLER_10_51 VGND VGND VPWR VPWR sky130_fd_sc_hd__decap_8
XFILLER_10_62 VGND VGND VPWR VPWR sky130_fd_sc_hd__decap_12
XFILLER_29_27 VGND VGND VPWR VPWR sky130_fd_sc_hd__decap_4
XFILLER_28_147 VGND VGND VPWR VPWR sky130_fd_sc_hd__decap_12
XFILLER_32_3 VGND VGND VPWR VPWR sky130_fd_sc_hd__decap_12
XFILLER_19_93 VGND VGND VPWR VPWR sky130_fd_sc_hd__decap_3
Xmem_right_track_36.sky130_fd_sc_hd__dfxtp_1_1_ clkbuf_2_3_0_mem_right_track_0.prog_clk/X
+ mux_right_track_36.mux_l1_in_0_/S VGND VGND VPWR VPWR mux_right_track_36.mux_l2_in_0_/S
+ sky130_fd_sc_hd__dfxtp_1
XPHY_101 VGND VPWR sky130_fd_sc_hd__tapvpwrvgnd_1
XPHY_112 VGND VPWR sky130_fd_sc_hd__tapvpwrvgnd_1
XPHY_123 VGND VPWR sky130_fd_sc_hd__tapvpwrvgnd_1
XPHY_134 VGND VPWR sky130_fd_sc_hd__tapvpwrvgnd_1
XPHY_145 VGND VPWR sky130_fd_sc_hd__tapvpwrvgnd_1
XPHY_156 VGND VPWR sky130_fd_sc_hd__tapvpwrvgnd_1
XPHY_167 VGND VPWR sky130_fd_sc_hd__tapvpwrvgnd_1
XPHY_178 VGND VPWR sky130_fd_sc_hd__tapvpwrvgnd_1
XPHY_189 VGND VPWR sky130_fd_sc_hd__tapvpwrvgnd_1
XANTENNA_mux_right_track_0.mux_l1_in_0__A1 chany_top_in[19] VGND VGND VPWR VPWR sky130_fd_sc_hd__diode_2
XPHY_3 VGND VGND VPWR VPWR sky130_fd_sc_hd__decap_3
XFILLER_30_120 VGND VGND VPWR VPWR sky130_fd_sc_hd__fill_2
Xclkbuf_2_3_0_mem_right_track_0.prog_clk clkbuf_2_3_0_mem_right_track_0.prog_clk/A
+ VGND VGND VPWR VPWR clkbuf_2_3_0_mem_right_track_0.prog_clk/X sky130_fd_sc_hd__clkbuf_1
XFILLER_12_131 VGND VGND VPWR VPWR sky130_fd_sc_hd__fill_1
XFILLER_21_175 VGND VGND VPWR VPWR sky130_fd_sc_hd__fill_1
XFILLER_21_120 VGND VGND VPWR VPWR sky130_fd_sc_hd__fill_1
XFILLER_8_179 VGND VGND VPWR VPWR sky130_fd_sc_hd__decap_4
XFILLER_32_60 VGND VGND VPWR VPWR sky130_fd_sc_hd__fill_1
XFILLER_5_105 VGND VGND VPWR VPWR sky130_fd_sc_hd__decap_12
XFILLER_7_190 VGND VGND VPWR VPWR sky130_fd_sc_hd__decap_12
XFILLER_26_201 VGND VGND VPWR VPWR sky130_fd_sc_hd__fill_1
XANTENNA_mux_right_track_28.mux_l1_in_0__A0 right_bottom_grid_pin_5_ VGND VGND VPWR
+ VPWR sky130_fd_sc_hd__diode_2
XFILLER_4_171 VGND VGND VPWR VPWR sky130_fd_sc_hd__decap_12
XFILLER_17_212 VGND VGND VPWR VPWR sky130_fd_sc_hd__fill_2
XFILLER_27_93 VGND VGND VPWR VPWR sky130_fd_sc_hd__decap_6
XFILLER_27_60 VGND VGND VPWR VPWR sky130_fd_sc_hd__fill_1
XFILLER_4_86 VGND VGND VPWR VPWR sky130_fd_sc_hd__decap_12
X_40_ VGND VGND VPWR VPWR _40_/HI _40_/LO sky130_fd_sc_hd__conb_1
XFILLER_1_141 VGND VGND VPWR VPWR sky130_fd_sc_hd__decap_12
XFILLER_20_207 VGND VGND VPWR VPWR sky130_fd_sc_hd__fill_2
XFILLER_1_32 VGND VGND VPWR VPWR sky130_fd_sc_hd__decap_12
XFILLER_6_222 VGND VGND VPWR VPWR sky130_fd_sc_hd__fill_1
Xmem_top_track_4.sky130_fd_sc_hd__dfxtp_1_1_ clkbuf_2_2_0_mem_right_track_0.prog_clk/X
+ mux_top_track_4.mux_l1_in_0_/S VGND VGND VPWR VPWR mux_top_track_4.mux_l2_in_0_/S
+ sky130_fd_sc_hd__dfxtp_1