* NGSPICE file created from sb_0__1_.ext - technology: sky130A

* Black-box entry subcircuit for sky130_fd_sc_hd__dfxtp_1 abstract view
.subckt sky130_fd_sc_hd__dfxtp_1 D Q CLK VGND VNB VPB VPWR
.ends

* Black-box entry subcircuit for sky130_fd_sc_hd__decap_8 abstract view
.subckt sky130_fd_sc_hd__decap_8 VGND VNB VPB VPWR
.ends

* Black-box entry subcircuit for sky130_fd_sc_hd__mux2_1 abstract view
.subckt sky130_fd_sc_hd__mux2_1 A0 A1 S X VGND VNB VPB VPWR
.ends

* Black-box entry subcircuit for sky130_fd_sc_hd__decap_4 abstract view
.subckt sky130_fd_sc_hd__decap_4 VGND VNB VPB VPWR
.ends

* Black-box entry subcircuit for sky130_fd_sc_hd__decap_6 abstract view
.subckt sky130_fd_sc_hd__decap_6 VGND VNB VPB VPWR
.ends

* Black-box entry subcircuit for sky130_fd_sc_hd__decap_3 abstract view
.subckt sky130_fd_sc_hd__decap_3 VGND VNB VPB VPWR
.ends

* Black-box entry subcircuit for sky130_fd_sc_hd__buf_4 abstract view
.subckt sky130_fd_sc_hd__buf_4 A X VGND VNB VPB VPWR
.ends

* Black-box entry subcircuit for sky130_fd_sc_hd__conb_1 abstract view
.subckt sky130_fd_sc_hd__conb_1 HI LO VGND VNB VPB VPWR
.ends

* Black-box entry subcircuit for sky130_fd_sc_hd__clkbuf_1 abstract view
.subckt sky130_fd_sc_hd__clkbuf_1 A X VGND VNB VPB VPWR
.ends

* Black-box entry subcircuit for sky130_fd_sc_hd__buf_2 abstract view
.subckt sky130_fd_sc_hd__buf_2 A X VGND VNB VPB VPWR
.ends

* Black-box entry subcircuit for sky130_fd_sc_hd__fill_1 abstract view
.subckt sky130_fd_sc_hd__fill_1 VGND VNB VPB VPWR
.ends

* Black-box entry subcircuit for sky130_fd_sc_hd__decap_12 abstract view
.subckt sky130_fd_sc_hd__decap_12 VGND VNB VPB VPWR
.ends

* Black-box entry subcircuit for sky130_fd_sc_hd__diode_2 abstract view
.subckt sky130_fd_sc_hd__diode_2 DIODE VGND VNB VPB VPWR
.ends

* Black-box entry subcircuit for sky130_fd_sc_hd__tapvpwrvgnd_1 abstract view
.subckt sky130_fd_sc_hd__tapvpwrvgnd_1 VGND VPWR
.ends

* Black-box entry subcircuit for sky130_fd_sc_hd__fill_2 abstract view
.subckt sky130_fd_sc_hd__fill_2 VGND VNB VPB VPWR
.ends

* Black-box entry subcircuit for sky130_fd_sc_hd__clkbuf_16 abstract view
.subckt sky130_fd_sc_hd__clkbuf_16 A X VGND VNB VPB VPWR
.ends

.subckt sb_0__1_ bottom_left_grid_pin_1_ ccff_head ccff_tail chanx_right_in[0] chanx_right_in[10]
+ chanx_right_in[11] chanx_right_in[12] chanx_right_in[13] chanx_right_in[14] chanx_right_in[15]
+ chanx_right_in[16] chanx_right_in[17] chanx_right_in[18] chanx_right_in[19] chanx_right_in[1]
+ chanx_right_in[2] chanx_right_in[3] chanx_right_in[4] chanx_right_in[5] chanx_right_in[6]
+ chanx_right_in[7] chanx_right_in[8] chanx_right_in[9] chanx_right_out[0] chanx_right_out[10]
+ chanx_right_out[11] chanx_right_out[12] chanx_right_out[13] chanx_right_out[14]
+ chanx_right_out[15] chanx_right_out[16] chanx_right_out[17] chanx_right_out[18]
+ chanx_right_out[19] chanx_right_out[1] chanx_right_out[2] chanx_right_out[3] chanx_right_out[4]
+ chanx_right_out[5] chanx_right_out[6] chanx_right_out[7] chanx_right_out[8] chanx_right_out[9]
+ chany_bottom_in[0] chany_bottom_in[10] chany_bottom_in[11] chany_bottom_in[12] chany_bottom_in[13]
+ chany_bottom_in[14] chany_bottom_in[15] chany_bottom_in[16] chany_bottom_in[17]
+ chany_bottom_in[18] chany_bottom_in[19] chany_bottom_in[1] chany_bottom_in[2] chany_bottom_in[3]
+ chany_bottom_in[4] chany_bottom_in[5] chany_bottom_in[6] chany_bottom_in[7] chany_bottom_in[8]
+ chany_bottom_in[9] chany_bottom_out[0] chany_bottom_out[10] chany_bottom_out[11]
+ chany_bottom_out[12] chany_bottom_out[13] chany_bottom_out[14] chany_bottom_out[15]
+ chany_bottom_out[16] chany_bottom_out[17] chany_bottom_out[18] chany_bottom_out[19]
+ chany_bottom_out[1] chany_bottom_out[2] chany_bottom_out[3] chany_bottom_out[4]
+ chany_bottom_out[5] chany_bottom_out[6] chany_bottom_out[7] chany_bottom_out[8]
+ chany_bottom_out[9] chany_top_in[0] chany_top_in[10] chany_top_in[11] chany_top_in[12]
+ chany_top_in[13] chany_top_in[14] chany_top_in[15] chany_top_in[16] chany_top_in[17]
+ chany_top_in[18] chany_top_in[19] chany_top_in[1] chany_top_in[2] chany_top_in[3]
+ chany_top_in[4] chany_top_in[5] chany_top_in[6] chany_top_in[7] chany_top_in[8]
+ chany_top_in[9] chany_top_out[0] chany_top_out[10] chany_top_out[11] chany_top_out[12]
+ chany_top_out[13] chany_top_out[14] chany_top_out[15] chany_top_out[16] chany_top_out[17]
+ chany_top_out[18] chany_top_out[19] chany_top_out[1] chany_top_out[2] chany_top_out[3]
+ chany_top_out[4] chany_top_out[5] chany_top_out[6] chany_top_out[7] chany_top_out[8]
+ chany_top_out[9] prog_clk right_bottom_grid_pin_34_ right_bottom_grid_pin_35_ right_bottom_grid_pin_36_
+ right_bottom_grid_pin_37_ right_bottom_grid_pin_38_ right_bottom_grid_pin_39_ right_bottom_grid_pin_40_
+ right_bottom_grid_pin_41_ top_left_grid_pin_1_ VPWR VGND
Xmem_right_track_20.sky130_fd_sc_hd__dfxtp_1_1_ mux_right_track_20.mux_l1_in_1_/S
+ mux_right_track_20.mux_l2_in_0_/S clkbuf_3_7_0_prog_clk/X VGND VGND VPWR VPWR sky130_fd_sc_hd__dfxtp_1
Xmem_right_track_2.sky130_fd_sc_hd__dfxtp_1_0_ mux_right_track_0.mux_l3_in_0_/S mux_right_track_2.mux_l1_in_2_/S
+ clkbuf_3_2_0_prog_clk/X VGND VGND VPWR VPWR sky130_fd_sc_hd__dfxtp_1
XFILLER_13_144 VGND VGND VPWR VPWR sky130_fd_sc_hd__decap_8
Xmux_bottom_track_3.mux_l1_in_1_ chanx_right_in[11] chanx_right_in[4] mux_bottom_track_3.mux_l1_in_0_/S
+ mux_bottom_track_3.mux_l1_in_1_/X VGND VGND VPWR VPWR sky130_fd_sc_hd__mux2_1
XFILLER_3_34 VGND VGND VPWR VPWR sky130_fd_sc_hd__decap_8
XFILLER_8_170 VGND VGND VPWR VPWR sky130_fd_sc_hd__decap_8
XFILLER_12_87 VGND VGND VPWR VPWR sky130_fd_sc_hd__decap_4
XFILLER_12_76 VGND VGND VPWR VPWR sky130_fd_sc_hd__decap_8
XFILLER_12_32 VGND VGND VPWR VPWR sky130_fd_sc_hd__decap_6
XFILLER_24_206 VGND VGND VPWR VPWR sky130_fd_sc_hd__decap_8
XFILLER_5_184 VGND VGND VPWR VPWR sky130_fd_sc_hd__decap_3
Xmux_right_track_36.sky130_fd_sc_hd__buf_4_0_ mux_right_track_36.mux_l2_in_0_/X _067_/A
+ VGND VGND VPWR VPWR sky130_fd_sc_hd__buf_4
XFILLER_23_20 VGND VGND VPWR VPWR sky130_fd_sc_hd__decap_8
X_062_ _062_/HI _062_/LO VGND VGND VPWR VPWR sky130_fd_sc_hd__conb_1
Xmem_right_track_8.sky130_fd_sc_hd__dfxtp_1_1_ mux_right_track_8.mux_l1_in_0_/S mux_right_track_8.mux_l2_in_1_/S
+ clkbuf_3_2_0_prog_clk/X VGND VGND VPWR VPWR sky130_fd_sc_hd__dfxtp_1
XFILLER_2_154 VGND VGND VPWR VPWR sky130_fd_sc_hd__decap_4
Xclkbuf_3_4_0_prog_clk clkbuf_3_5_0_prog_clk/A clkbuf_3_4_0_prog_clk/X VGND VGND VPWR
+ VPWR sky130_fd_sc_hd__clkbuf_1
X_045_ _045_/HI _045_/LO VGND VGND VPWR VPWR sky130_fd_sc_hd__conb_1
X_114_ chany_bottom_in[10] chany_top_out[11] VGND VGND VPWR VPWR sky130_fd_sc_hd__buf_2
Xmux_bottom_track_17.mux_l1_in_0_ chany_top_in[17] chany_top_in[8] mux_bottom_track_17.mux_l1_in_1_/S
+ mux_bottom_track_17.mux_l1_in_0_/X VGND VGND VPWR VPWR sky130_fd_sc_hd__mux2_1
Xmem_bottom_track_25.sky130_fd_sc_hd__dfxtp_1_2_ mux_bottom_track_25.mux_l2_in_1_/S
+ mux_bottom_track_25.mux_l3_in_0_/S clkbuf_3_5_0_prog_clk/X VGND VGND VPWR VPWR sky130_fd_sc_hd__dfxtp_1
XFILLER_20_32 VGND VGND VPWR VPWR sky130_fd_sc_hd__fill_1
XFILLER_4_205 VGND VGND VPWR VPWR sky130_fd_sc_hd__decap_8
XFILLER_13_3 VGND VGND VPWR VPWR sky130_fd_sc_hd__decap_12
XANTENNA_5 _054_/HI VGND VGND VPWR VPWR sky130_fd_sc_hd__diode_2
XFILLER_6_12 VGND VGND VPWR VPWR sky130_fd_sc_hd__decap_8
XFILLER_6_23 VGND VGND VPWR VPWR sky130_fd_sc_hd__decap_8
XFILLER_31_53 VGND VGND VPWR VPWR sky130_fd_sc_hd__decap_8
XFILLER_25_175 VGND VGND VPWR VPWR sky130_fd_sc_hd__decap_8
XPHY_192 VGND VPWR sky130_fd_sc_hd__tapvpwrvgnd_1
XFILLER_31_123 VGND VGND VPWR VPWR sky130_fd_sc_hd__decap_8
XPHY_181 VGND VPWR sky130_fd_sc_hd__tapvpwrvgnd_1
XPHY_170 VGND VPWR sky130_fd_sc_hd__tapvpwrvgnd_1
XFILLER_16_164 VGND VGND VPWR VPWR sky130_fd_sc_hd__decap_8
Xmux_bottom_track_3.sky130_fd_sc_hd__buf_4_0_ mux_bottom_track_3.mux_l3_in_0_/X _104_/A
+ VGND VGND VPWR VPWR sky130_fd_sc_hd__buf_4
Xmem_right_track_20.sky130_fd_sc_hd__dfxtp_1_0_ mux_right_track_18.mux_l2_in_0_/S
+ mux_right_track_20.mux_l1_in_1_/S clkbuf_3_7_0_prog_clk/X VGND VGND VPWR VPWR sky130_fd_sc_hd__dfxtp_1
XFILLER_22_123 VGND VGND VPWR VPWR sky130_fd_sc_hd__decap_8
XFILLER_26_42 VGND VGND VPWR VPWR sky130_fd_sc_hd__decap_12
Xmux_bottom_track_3.mux_l1_in_0_ chany_top_in[13] chany_top_in[4] mux_bottom_track_3.mux_l1_in_0_/S
+ mux_bottom_track_3.mux_l1_in_0_/X VGND VGND VPWR VPWR sky130_fd_sc_hd__mux2_1
XFILLER_9_149 VGND VGND VPWR VPWR sky130_fd_sc_hd__decap_8
XFILLER_33_218 VGND VGND VPWR VPWR sky130_fd_sc_hd__decap_4
XFILLER_18_215 VGND VGND VPWR VPWR sky130_fd_sc_hd__decap_8
XFILLER_5_163 VGND VGND VPWR VPWR sky130_fd_sc_hd__decap_8
Xmem_right_track_8.sky130_fd_sc_hd__dfxtp_1_0_ mux_right_track_6.mux_l3_in_0_/S mux_right_track_8.mux_l1_in_0_/S
+ clkbuf_3_2_0_prog_clk/X VGND VGND VPWR VPWR sky130_fd_sc_hd__dfxtp_1
X_061_ _061_/HI _061_/LO VGND VGND VPWR VPWR sky130_fd_sc_hd__conb_1
Xmem_right_track_26.sky130_fd_sc_hd__dfxtp_1_1_ mux_right_track_26.mux_l1_in_0_/S
+ mux_right_track_26.mux_l2_in_0_/S clkbuf_3_1_0_prog_clk/X VGND VGND VPWR VPWR sky130_fd_sc_hd__dfxtp_1
X_044_ _044_/HI _044_/LO VGND VGND VPWR VPWR sky130_fd_sc_hd__conb_1
X_113_ _113_/A chany_top_out[12] VGND VGND VPWR VPWR sky130_fd_sc_hd__buf_2
XFILLER_18_43 VGND VGND VPWR VPWR sky130_fd_sc_hd__decap_12
XFILLER_18_32 VGND VGND VPWR VPWR sky130_fd_sc_hd__fill_2
Xmem_bottom_track_25.sky130_fd_sc_hd__dfxtp_1_1_ mux_bottom_track_25.mux_l1_in_1_/S
+ mux_bottom_track_25.mux_l2_in_1_/S clkbuf_3_5_0_prog_clk/X VGND VGND VPWR VPWR sky130_fd_sc_hd__dfxtp_1
XFILLER_29_129 VGND VGND VPWR VPWR sky130_fd_sc_hd__decap_8
XFILLER_29_53 VGND VGND VPWR VPWR sky130_fd_sc_hd__decap_8
XFILLER_29_31 VGND VGND VPWR VPWR sky130_fd_sc_hd__decap_12
XFILLER_1_90 VGND VGND VPWR VPWR sky130_fd_sc_hd__decap_3
XFILLER_28_162 VGND VGND VPWR VPWR sky130_fd_sc_hd__fill_1
XFILLER_19_184 VGND VGND VPWR VPWR sky130_fd_sc_hd__decap_8
XANTENNA_6 _054_/HI VGND VGND VPWR VPWR sky130_fd_sc_hd__diode_2
XPHY_193 VGND VPWR sky130_fd_sc_hd__tapvpwrvgnd_1
XPHY_182 VGND VPWR sky130_fd_sc_hd__tapvpwrvgnd_1
XPHY_171 VGND VPWR sky130_fd_sc_hd__tapvpwrvgnd_1
XPHY_160 VGND VPWR sky130_fd_sc_hd__tapvpwrvgnd_1
XFILLER_16_154 VGND VGND VPWR VPWR sky130_fd_sc_hd__fill_1
XFILLER_16_143 VGND VGND VPWR VPWR sky130_fd_sc_hd__decap_8
Xmem_bottom_track_3.sky130_fd_sc_hd__dfxtp_1_2_ mux_bottom_track_3.mux_l2_in_0_/S
+ mux_bottom_track_3.mux_l3_in_0_/S clkbuf_3_4_0_prog_clk/X VGND VGND VPWR VPWR sky130_fd_sc_hd__dfxtp_1
XFILLER_26_76 VGND VGND VPWR VPWR sky130_fd_sc_hd__decap_12
XFILLER_26_54 VGND VGND VPWR VPWR sky130_fd_sc_hd__decap_6
XFILLER_26_32 VGND VGND VPWR VPWR sky130_fd_sc_hd__fill_1
XFILLER_6_109 VGND VGND VPWR VPWR sky130_fd_sc_hd__decap_8
XFILLER_10_127 VGND VGND VPWR VPWR sky130_fd_sc_hd__decap_8
XFILLER_33_208 VGND VGND VPWR VPWR sky130_fd_sc_hd__decap_8
XFILLER_5_175 VGND VGND VPWR VPWR sky130_fd_sc_hd__decap_8
Xmux_right_track_10.mux_l3_in_0_ mux_right_track_10.mux_l2_in_1_/X mux_right_track_10.mux_l2_in_0_/X
+ mux_right_track_10.mux_l3_in_0_/S mux_right_track_10.mux_l3_in_0_/X VGND VGND VPWR
+ VPWR sky130_fd_sc_hd__mux2_1
XFILLER_23_44 VGND VGND VPWR VPWR sky130_fd_sc_hd__decap_12
X_060_ _060_/HI _060_/LO VGND VGND VPWR VPWR sky130_fd_sc_hd__conb_1
XFILLER_2_123 VGND VGND VPWR VPWR sky130_fd_sc_hd__decap_12
XFILLER_2_145 VGND VGND VPWR VPWR sky130_fd_sc_hd__decap_8
XFILLER_3_3 VGND VGND VPWR VPWR sky130_fd_sc_hd__decap_4
Xmem_right_track_26.sky130_fd_sc_hd__dfxtp_1_0_ mux_right_track_24.mux_l3_in_0_/S
+ mux_right_track_26.mux_l1_in_0_/S clkbuf_3_1_0_prog_clk/X VGND VGND VPWR VPWR sky130_fd_sc_hd__dfxtp_1
XFILLER_9_68 VGND VGND VPWR VPWR sky130_fd_sc_hd__decap_12
X_043_ _043_/HI _043_/LO VGND VGND VPWR VPWR sky130_fd_sc_hd__conb_1
XFILLER_18_99 VGND VGND VPWR VPWR sky130_fd_sc_hd__decap_8
XFILLER_18_88 VGND VGND VPWR VPWR sky130_fd_sc_hd__decap_4
XFILLER_18_77 VGND VGND VPWR VPWR sky130_fd_sc_hd__decap_8
XFILLER_18_55 VGND VGND VPWR VPWR sky130_fd_sc_hd__decap_6
XFILLER_18_11 VGND VGND VPWR VPWR sky130_fd_sc_hd__decap_8
X_112_ chany_bottom_in[12] chany_top_out[13] VGND VGND VPWR VPWR sky130_fd_sc_hd__buf_2
Xmux_right_track_10.mux_l2_in_1_ _061_/HI chany_bottom_in[9] mux_right_track_10.mux_l2_in_0_/S
+ mux_right_track_10.mux_l2_in_1_/X VGND VGND VPWR VPWR sky130_fd_sc_hd__mux2_1
Xmem_bottom_track_25.sky130_fd_sc_hd__dfxtp_1_0_ mux_bottom_track_17.mux_l3_in_0_/S
+ mux_bottom_track_25.mux_l1_in_1_/S clkbuf_3_4_0_prog_clk/X VGND VGND VPWR VPWR sky130_fd_sc_hd__dfxtp_1
XFILLER_20_23 VGND VGND VPWR VPWR sky130_fd_sc_hd__decap_8
XFILLER_29_43 VGND VGND VPWR VPWR sky130_fd_sc_hd__fill_1
XFILLER_20_6 VGND VGND VPWR VPWR sky130_fd_sc_hd__decap_8
Xmem_top_track_16.sky130_fd_sc_hd__dfxtp_1_2_ mux_top_track_16.mux_l2_in_0_/S mux_top_track_16.mux_l3_in_0_/S
+ clkbuf_3_5_0_prog_clk/X VGND VGND VPWR VPWR sky130_fd_sc_hd__dfxtp_1
XANTENNA_7 _055_/HI VGND VGND VPWR VPWR sky130_fd_sc_hd__diode_2
XFILLER_19_152 VGND VGND VPWR VPWR sky130_fd_sc_hd__decap_12
XFILLER_31_11 VGND VGND VPWR VPWR sky130_fd_sc_hd__fill_2
XPHY_183 VGND VPWR sky130_fd_sc_hd__tapvpwrvgnd_1
XFILLER_31_147 VGND VGND VPWR VPWR sky130_fd_sc_hd__decap_8
XPHY_172 VGND VPWR sky130_fd_sc_hd__tapvpwrvgnd_1
XPHY_161 VGND VPWR sky130_fd_sc_hd__tapvpwrvgnd_1
XPHY_150 VGND VPWR sky130_fd_sc_hd__tapvpwrvgnd_1
Xclkbuf_2_1_0_prog_clk clkbuf_2_1_0_prog_clk/A clkbuf_3_3_0_prog_clk/A VGND VGND VPWR
+ VPWR sky130_fd_sc_hd__clkbuf_1
XFILLER_16_188 VGND VGND VPWR VPWR sky130_fd_sc_hd__decap_6
XFILLER_26_88 VGND VGND VPWR VPWR sky130_fd_sc_hd__decap_4
XFILLER_13_114 VGND VGND VPWR VPWR sky130_fd_sc_hd__decap_8
XFILLER_13_103 VGND VGND VPWR VPWR sky130_fd_sc_hd__decap_8
Xmem_bottom_track_3.sky130_fd_sc_hd__dfxtp_1_1_ mux_bottom_track_3.mux_l1_in_0_/S
+ mux_bottom_track_3.mux_l2_in_0_/S clkbuf_3_4_0_prog_clk/X VGND VGND VPWR VPWR sky130_fd_sc_hd__dfxtp_1
XFILLER_23_56 VGND VGND VPWR VPWR sky130_fd_sc_hd__fill_1
Xmem_bottom_track_9.sky130_fd_sc_hd__dfxtp_1_2_ mux_bottom_track_9.mux_l2_in_0_/S
+ mux_bottom_track_9.mux_l3_in_0_/S clkbuf_3_4_0_prog_clk/X VGND VGND VPWR VPWR sky130_fd_sc_hd__dfxtp_1
XFILLER_2_135 VGND VGND VPWR VPWR sky130_fd_sc_hd__fill_1
XFILLER_9_36 VGND VGND VPWR VPWR sky130_fd_sc_hd__decap_8
XFILLER_18_23 VGND VGND VPWR VPWR sky130_fd_sc_hd__decap_8
XFILLER_11_201 VGND VGND VPWR VPWR sky130_fd_sc_hd__decap_3
Xmux_right_track_10.mux_l2_in_0_ right_bottom_grid_pin_35_ mux_right_track_10.mux_l1_in_0_/X
+ mux_right_track_10.mux_l2_in_0_/S mux_right_track_10.mux_l2_in_0_/X VGND VGND VPWR
+ VPWR sky130_fd_sc_hd__mux2_1
X_111_ chany_bottom_in[13] chany_top_out[14] VGND VGND VPWR VPWR sky130_fd_sc_hd__buf_2
X_042_ _042_/HI _042_/LO VGND VGND VPWR VPWR sky130_fd_sc_hd__conb_1
Xmux_right_track_8.mux_l3_in_0_ mux_right_track_8.mux_l2_in_1_/X mux_right_track_8.mux_l2_in_0_/X
+ mux_right_track_8.mux_l3_in_0_/S mux_right_track_8.mux_l3_in_0_/X VGND VGND VPWR
+ VPWR sky130_fd_sc_hd__mux2_1
Xmux_top_track_0.mux_l3_in_0_ mux_top_track_0.mux_l2_in_1_/X mux_top_track_0.mux_l2_in_0_/X
+ mux_top_track_0.mux_l3_in_0_/S mux_top_track_0.mux_l3_in_0_/X VGND VGND VPWR VPWR
+ sky130_fd_sc_hd__mux2_1
XFILLER_28_197 VGND VGND VPWR VPWR sky130_fd_sc_hd__decap_12
Xclkbuf_3_3_0_prog_clk clkbuf_3_3_0_prog_clk/A clkbuf_3_3_0_prog_clk/X VGND VGND VPWR
+ VPWR sky130_fd_sc_hd__clkbuf_1
XANTENNA_8 _064_/HI VGND VGND VPWR VPWR sky130_fd_sc_hd__diode_2
XFILLER_6_48 VGND VGND VPWR VPWR sky130_fd_sc_hd__decap_8
XFILLER_19_175 VGND VGND VPWR VPWR sky130_fd_sc_hd__decap_8
XFILLER_19_164 VGND VGND VPWR VPWR sky130_fd_sc_hd__fill_2
Xmem_top_track_16.sky130_fd_sc_hd__dfxtp_1_1_ mux_top_track_16.mux_l1_in_1_/S mux_top_track_16.mux_l2_in_0_/S
+ clkbuf_3_5_0_prog_clk/X VGND VGND VPWR VPWR sky130_fd_sc_hd__dfxtp_1
Xmem_right_track_12.sky130_fd_sc_hd__dfxtp_1_2_ mux_right_track_12.mux_l2_in_1_/S
+ mux_right_track_12.mux_l3_in_0_/S clkbuf_3_6_0_prog_clk/X VGND VGND VPWR VPWR sky130_fd_sc_hd__dfxtp_1
XFILLER_25_134 VGND VGND VPWR VPWR sky130_fd_sc_hd__decap_8
XFILLER_25_123 VGND VGND VPWR VPWR sky130_fd_sc_hd__fill_2
XFILLER_15_68 VGND VGND VPWR VPWR sky130_fd_sc_hd__decap_8
XFILLER_0_222 VGND VGND VPWR VPWR sky130_fd_sc_hd__fill_1
XFILLER_0_200 VGND VGND VPWR VPWR sky130_fd_sc_hd__decap_12
XPHY_184 VGND VPWR sky130_fd_sc_hd__tapvpwrvgnd_1
XPHY_173 VGND VPWR sky130_fd_sc_hd__tapvpwrvgnd_1
Xmux_right_track_8.mux_l2_in_1_ _045_/HI chany_bottom_in[8] mux_right_track_8.mux_l2_in_1_/S
+ mux_right_track_8.mux_l2_in_1_/X VGND VGND VPWR VPWR sky130_fd_sc_hd__mux2_1
XPHY_162 VGND VPWR sky130_fd_sc_hd__tapvpwrvgnd_1
XPHY_151 VGND VPWR sky130_fd_sc_hd__tapvpwrvgnd_1
XPHY_140 VGND VPWR sky130_fd_sc_hd__tapvpwrvgnd_1
XFILLER_11_3 VGND VGND VPWR VPWR sky130_fd_sc_hd__decap_12
Xmux_top_track_0.mux_l2_in_1_ _046_/HI mux_top_track_0.mux_l1_in_2_/X mux_top_track_0.mux_l2_in_0_/S
+ mux_top_track_0.mux_l2_in_1_/X VGND VGND VPWR VPWR sky130_fd_sc_hd__mux2_1
XFILLER_30_181 VGND VGND VPWR VPWR sky130_fd_sc_hd__decap_6
XFILLER_26_23 VGND VGND VPWR VPWR sky130_fd_sc_hd__decap_8
XFILLER_22_148 VGND VGND VPWR VPWR sky130_fd_sc_hd__fill_2
Xmem_bottom_track_3.sky130_fd_sc_hd__dfxtp_1_0_ mux_bottom_track_1.mux_l3_in_0_/S
+ mux_bottom_track_3.mux_l1_in_0_/S clkbuf_3_4_0_prog_clk/X VGND VGND VPWR VPWR sky130_fd_sc_hd__dfxtp_1
XFILLER_21_170 VGND VGND VPWR VPWR sky130_fd_sc_hd__decap_12
XFILLER_8_196 VGND VGND VPWR VPWR sky130_fd_sc_hd__decap_12
Xmux_top_track_0.mux_l1_in_2_ chany_bottom_in[12] chany_bottom_in[2] mux_top_track_0.mux_l1_in_1_/S
+ mux_top_track_0.mux_l1_in_2_/X VGND VGND VPWR VPWR sky130_fd_sc_hd__mux2_1
Xmux_top_track_16.sky130_fd_sc_hd__buf_4_0_ mux_top_track_16.mux_l3_in_0_/X _117_/A
+ VGND VGND VPWR VPWR sky130_fd_sc_hd__buf_4
XFILLER_2_158 VGND VGND VPWR VPWR sky130_fd_sc_hd__fill_1
Xmem_bottom_track_9.sky130_fd_sc_hd__dfxtp_1_1_ mux_bottom_track_9.mux_l1_in_1_/S
+ mux_bottom_track_9.mux_l2_in_0_/S clkbuf_3_4_0_prog_clk/X VGND VGND VPWR VPWR sky130_fd_sc_hd__dfxtp_1
XFILLER_9_15 VGND VGND VPWR VPWR sky130_fd_sc_hd__decap_4
X_110_ chany_bottom_in[14] chany_top_out[15] VGND VGND VPWR VPWR sky130_fd_sc_hd__buf_2
X_041_ _041_/HI _041_/LO VGND VGND VPWR VPWR sky130_fd_sc_hd__conb_1
XFILLER_1_60 VGND VGND VPWR VPWR sky130_fd_sc_hd__fill_1
XFILLER_28_187 VGND VGND VPWR VPWR sky130_fd_sc_hd__fill_1
XFILLER_28_154 VGND VGND VPWR VPWR sky130_fd_sc_hd__decap_8
XANTENNA_9 _064_/HI VGND VGND VPWR VPWR sky130_fd_sc_hd__diode_2
Xmem_top_track_16.sky130_fd_sc_hd__dfxtp_1_0_ mux_top_track_8.mux_l3_in_0_/S mux_top_track_16.mux_l1_in_1_/S
+ clkbuf_3_7_0_prog_clk/X VGND VGND VPWR VPWR sky130_fd_sc_hd__dfxtp_1
XFILLER_19_121 VGND VGND VPWR VPWR sky130_fd_sc_hd__fill_1
XFILLER_10_80 VGND VGND VPWR VPWR sky130_fd_sc_hd__decap_8
XFILLER_10_91 VGND VGND VPWR VPWR sky130_fd_sc_hd__fill_1
Xmux_top_track_0.sky130_fd_sc_hd__buf_4_0_ mux_top_track_0.mux_l3_in_0_/X _125_/A
+ VGND VGND VPWR VPWR sky130_fd_sc_hd__buf_4
XFILLER_31_68 VGND VGND VPWR VPWR sky130_fd_sc_hd__decap_8
Xmem_right_track_12.sky130_fd_sc_hd__dfxtp_1_1_ mux_right_track_12.mux_l1_in_0_/S
+ mux_right_track_12.mux_l2_in_1_/S clkbuf_3_3_0_prog_clk/X VGND VGND VPWR VPWR sky130_fd_sc_hd__dfxtp_1
XFILLER_0_212 VGND VGND VPWR VPWR sky130_fd_sc_hd__decap_4
XPHY_185 VGND VPWR sky130_fd_sc_hd__tapvpwrvgnd_1
Xmux_right_track_10.mux_l1_in_0_ chany_top_in[11] chany_top_in[9] mux_right_track_10.mux_l1_in_0_/S
+ mux_right_track_10.mux_l1_in_0_/X VGND VGND VPWR VPWR sky130_fd_sc_hd__mux2_1
XPHY_174 VGND VPWR sky130_fd_sc_hd__tapvpwrvgnd_1
Xmux_right_track_8.mux_l2_in_0_ right_bottom_grid_pin_34_ mux_right_track_8.mux_l1_in_0_/X
+ mux_right_track_8.mux_l2_in_1_/S mux_right_track_8.mux_l2_in_0_/X VGND VGND VPWR
+ VPWR sky130_fd_sc_hd__mux2_1
XPHY_163 VGND VPWR sky130_fd_sc_hd__tapvpwrvgnd_1
XPHY_152 VGND VPWR sky130_fd_sc_hd__tapvpwrvgnd_1
XPHY_141 VGND VPWR sky130_fd_sc_hd__tapvpwrvgnd_1
XPHY_130 VGND VPWR sky130_fd_sc_hd__tapvpwrvgnd_1
Xmux_top_track_0.mux_l2_in_0_ mux_top_track_0.mux_l1_in_1_/X mux_top_track_0.mux_l1_in_0_/X
+ mux_top_track_0.mux_l2_in_0_/S mux_top_track_0.mux_l2_in_0_/X VGND VGND VPWR VPWR
+ sky130_fd_sc_hd__mux2_1
Xmux_right_track_22.mux_l2_in_0_ mux_right_track_22.mux_l1_in_1_/X mux_right_track_22.mux_l1_in_0_/X
+ mux_right_track_22.mux_l2_in_0_/S mux_right_track_22.mux_l2_in_0_/X VGND VGND VPWR
+ VPWR sky130_fd_sc_hd__mux2_1
XFILLER_21_182 VGND VGND VPWR VPWR sky130_fd_sc_hd__fill_1
XFILLER_13_127 VGND VGND VPWR VPWR sky130_fd_sc_hd__decap_8
Xmux_top_track_0.mux_l1_in_1_ chanx_right_in[15] chanx_right_in[8] mux_top_track_0.mux_l1_in_1_/S
+ mux_top_track_0.mux_l1_in_1_/X VGND VGND VPWR VPWR sky130_fd_sc_hd__mux2_1
XFILLER_12_15 VGND VGND VPWR VPWR sky130_fd_sc_hd__decap_12
Xmux_right_track_22.mux_l1_in_1_ _035_/HI chany_bottom_in[17] mux_right_track_22.mux_l1_in_0_/S
+ mux_right_track_22.mux_l1_in_1_/X VGND VGND VPWR VPWR sky130_fd_sc_hd__mux2_1
XFILLER_5_123 VGND VGND VPWR VPWR sky130_fd_sc_hd__fill_2
XFILLER_23_222 VGND VGND VPWR VPWR sky130_fd_sc_hd__fill_1
XFILLER_4_93 VGND VGND VPWR VPWR sky130_fd_sc_hd__fill_1
Xmem_bottom_track_9.sky130_fd_sc_hd__dfxtp_1_0_ mux_bottom_track_5.mux_l3_in_0_/S
+ mux_bottom_track_9.mux_l1_in_1_/S clkbuf_3_1_0_prog_clk/X VGND VGND VPWR VPWR sky130_fd_sc_hd__dfxtp_1
XFILLER_1_3 VGND VGND VPWR VPWR sky130_fd_sc_hd__decap_4
Xmem_bottom_track_17.sky130_fd_sc_hd__dfxtp_1_2_ mux_bottom_track_17.mux_l2_in_0_/S
+ mux_bottom_track_17.mux_l3_in_0_/S clkbuf_3_5_0_prog_clk/X VGND VGND VPWR VPWR sky130_fd_sc_hd__dfxtp_1
X_040_ _040_/HI _040_/LO VGND VGND VPWR VPWR sky130_fd_sc_hd__conb_1
Xmux_right_track_10.sky130_fd_sc_hd__buf_4_0_ mux_right_track_10.mux_l3_in_0_/X _080_/A
+ VGND VGND VPWR VPWR sky130_fd_sc_hd__buf_4
XFILLER_29_79 VGND VGND VPWR VPWR sky130_fd_sc_hd__decap_3
Xmem_right_track_12.sky130_fd_sc_hd__dfxtp_1_0_ mux_right_track_10.mux_l3_in_0_/S
+ mux_right_track_12.mux_l1_in_0_/S clkbuf_3_3_0_prog_clk/X VGND VGND VPWR VPWR sky130_fd_sc_hd__dfxtp_1
XFILLER_25_158 VGND VGND VPWR VPWR sky130_fd_sc_hd__decap_8
XFILLER_25_114 VGND VGND VPWR VPWR sky130_fd_sc_hd__decap_8
XFILLER_25_103 VGND VGND VPWR VPWR sky130_fd_sc_hd__fill_2
XFILLER_15_15 VGND VGND VPWR VPWR sky130_fd_sc_hd__fill_1
XPHY_186 VGND VPWR sky130_fd_sc_hd__tapvpwrvgnd_1
XPHY_175 VGND VPWR sky130_fd_sc_hd__tapvpwrvgnd_1
XPHY_164 VGND VPWR sky130_fd_sc_hd__tapvpwrvgnd_1
XPHY_153 VGND VPWR sky130_fd_sc_hd__tapvpwrvgnd_1
XPHY_142 VGND VPWR sky130_fd_sc_hd__tapvpwrvgnd_1
XPHY_131 VGND VPWR sky130_fd_sc_hd__tapvpwrvgnd_1
XPHY_120 VGND VPWR sky130_fd_sc_hd__tapvpwrvgnd_1
XFILLER_22_106 VGND VGND VPWR VPWR sky130_fd_sc_hd__decap_8
XPHY_0 VGND VGND VPWR VPWR sky130_fd_sc_hd__decap_3
Xmux_bottom_track_33.sky130_fd_sc_hd__buf_4_0_ mux_bottom_track_33.mux_l2_in_0_/X
+ _089_/A VGND VGND VPWR VPWR sky130_fd_sc_hd__buf_4
Xmux_bottom_track_25.mux_l3_in_0_ mux_bottom_track_25.mux_l2_in_1_/X mux_bottom_track_25.mux_l2_in_0_/X
+ mux_bottom_track_25.mux_l3_in_0_/S mux_bottom_track_25.mux_l3_in_0_/X VGND VGND
+ VPWR VPWR sky130_fd_sc_hd__mux2_1
Xmux_right_track_8.mux_l1_in_0_ chany_top_in[8] chany_top_in[7] mux_right_track_8.mux_l1_in_0_/S
+ mux_right_track_8.mux_l1_in_0_/X VGND VGND VPWR VPWR sky130_fd_sc_hd__mux2_1
XFILLER_12_27 VGND VGND VPWR VPWR sky130_fd_sc_hd__decap_4
Xmux_right_track_22.mux_l1_in_0_ right_bottom_grid_pin_41_ chany_top_in[17] mux_right_track_22.mux_l1_in_0_/S
+ mux_right_track_22.mux_l1_in_0_/X VGND VGND VPWR VPWR sky130_fd_sc_hd__mux2_1
Xmem_right_track_18.sky130_fd_sc_hd__dfxtp_1_1_ mux_right_track_18.mux_l1_in_1_/S
+ mux_right_track_18.mux_l2_in_0_/S clkbuf_3_7_0_prog_clk/X VGND VGND VPWR VPWR sky130_fd_sc_hd__dfxtp_1
Xclkbuf_2_0_0_prog_clk clkbuf_2_1_0_prog_clk/A clkbuf_2_0_0_prog_clk/X VGND VGND VPWR
+ VPWR sky130_fd_sc_hd__clkbuf_1
XFILLER_5_146 VGND VGND VPWR VPWR sky130_fd_sc_hd__decap_8
Xmux_top_track_0.mux_l1_in_0_ chanx_right_in[1] top_left_grid_pin_1_ mux_top_track_0.mux_l1_in_1_/S
+ mux_top_track_0.mux_l1_in_0_/X VGND VGND VPWR VPWR sky130_fd_sc_hd__mux2_1
XFILLER_4_50 VGND VGND VPWR VPWR sky130_fd_sc_hd__decap_8
Xmux_right_track_34.mux_l2_in_0_ _041_/HI mux_right_track_34.mux_l1_in_0_/X mux_right_track_34.mux_l2_in_0_/S
+ mux_right_track_34.mux_l2_in_0_/X VGND VGND VPWR VPWR sky130_fd_sc_hd__mux2_1
Xmux_right_track_8.sky130_fd_sc_hd__buf_4_0_ mux_right_track_8.mux_l3_in_0_/X _081_/A
+ VGND VGND VPWR VPWR sky130_fd_sc_hd__buf_4
XFILLER_14_201 VGND VGND VPWR VPWR sky130_fd_sc_hd__decap_12
Xmux_bottom_track_25.mux_l2_in_1_ _055_/HI chanx_right_in[14] mux_bottom_track_25.mux_l2_in_1_/S
+ mux_bottom_track_25.mux_l2_in_1_/X VGND VGND VPWR VPWR sky130_fd_sc_hd__mux2_1
XFILLER_20_215 VGND VGND VPWR VPWR sky130_fd_sc_hd__decap_8
XFILLER_1_193 VGND VGND VPWR VPWR sky130_fd_sc_hd__decap_8
XFILLER_1_160 VGND VGND VPWR VPWR sky130_fd_sc_hd__decap_8
Xmux_bottom_track_9.mux_l3_in_0_ mux_bottom_track_9.mux_l2_in_1_/X mux_bottom_track_9.mux_l2_in_0_/X
+ mux_bottom_track_9.mux_l3_in_0_/S mux_bottom_track_9.mux_l3_in_0_/X VGND VGND VPWR
+ VPWR sky130_fd_sc_hd__mux2_1
XFILLER_11_215 VGND VGND VPWR VPWR sky130_fd_sc_hd__decap_8
Xmem_bottom_track_17.sky130_fd_sc_hd__dfxtp_1_1_ mux_bottom_track_17.mux_l1_in_1_/S
+ mux_bottom_track_17.mux_l2_in_0_/S clkbuf_3_4_0_prog_clk/X VGND VGND VPWR VPWR sky130_fd_sc_hd__dfxtp_1
XFILLER_27_3 VGND VGND VPWR VPWR sky130_fd_sc_hd__decap_8
X_099_ chany_top_in[5] chany_bottom_out[6] VGND VGND VPWR VPWR sky130_fd_sc_hd__buf_2
XFILLER_28_145 VGND VGND VPWR VPWR sky130_fd_sc_hd__decap_8
XFILLER_28_123 VGND VGND VPWR VPWR sky130_fd_sc_hd__decap_12
XFILLER_19_123 VGND VGND VPWR VPWR sky130_fd_sc_hd__fill_1
Xmux_bottom_track_9.mux_l2_in_1_ _059_/HI mux_bottom_track_9.mux_l1_in_2_/X mux_bottom_track_9.mux_l2_in_0_/S
+ mux_bottom_track_9.mux_l2_in_1_/X VGND VGND VPWR VPWR sky130_fd_sc_hd__mux2_1
XFILLER_10_93 VGND VGND VPWR VPWR sky130_fd_sc_hd__fill_1
Xmux_right_track_32.sky130_fd_sc_hd__buf_4_0_ mux_right_track_32.mux_l2_in_0_/X _069_/A
+ VGND VGND VPWR VPWR sky130_fd_sc_hd__buf_4
XPHY_187 VGND VPWR sky130_fd_sc_hd__tapvpwrvgnd_1
XPHY_176 VGND VPWR sky130_fd_sc_hd__tapvpwrvgnd_1
XPHY_165 VGND VPWR sky130_fd_sc_hd__tapvpwrvgnd_1
XFILLER_24_170 VGND VGND VPWR VPWR sky130_fd_sc_hd__decap_8
XPHY_154 VGND VPWR sky130_fd_sc_hd__tapvpwrvgnd_1
XPHY_143 VGND VPWR sky130_fd_sc_hd__tapvpwrvgnd_1
XPHY_132 VGND VPWR sky130_fd_sc_hd__tapvpwrvgnd_1
XFILLER_16_126 VGND VGND VPWR VPWR sky130_fd_sc_hd__decap_8
XPHY_121 VGND VPWR sky130_fd_sc_hd__tapvpwrvgnd_1
XPHY_110 VGND VPWR sky130_fd_sc_hd__tapvpwrvgnd_1
XFILLER_30_140 VGND VGND VPWR VPWR sky130_fd_sc_hd__decap_12
XPHY_1 VGND VGND VPWR VPWR sky130_fd_sc_hd__decap_3
Xclkbuf_3_2_0_prog_clk clkbuf_3_3_0_prog_clk/A clkbuf_3_2_0_prog_clk/X VGND VGND VPWR
+ VPWR sky130_fd_sc_hd__clkbuf_1
XFILLER_21_195 VGND VGND VPWR VPWR sky130_fd_sc_hd__decap_8
XFILLER_21_184 VGND VGND VPWR VPWR sky130_fd_sc_hd__fill_2
Xmux_bottom_track_9.mux_l1_in_2_ bottom_left_grid_pin_1_ chanx_right_in[16] mux_bottom_track_9.mux_l1_in_1_/S
+ mux_bottom_track_9.mux_l1_in_2_/X VGND VGND VPWR VPWR sky130_fd_sc_hd__mux2_1
XFILLER_32_91 VGND VGND VPWR VPWR sky130_fd_sc_hd__fill_1
Xmux_right_track_26.sky130_fd_sc_hd__buf_4_0_ mux_right_track_26.mux_l2_in_0_/X _072_/A
+ VGND VGND VPWR VPWR sky130_fd_sc_hd__buf_4
XFILLER_8_111 VGND VGND VPWR VPWR sky130_fd_sc_hd__decap_8
Xmem_right_track_18.sky130_fd_sc_hd__dfxtp_1_0_ mux_right_track_16.mux_l2_in_0_/S
+ mux_right_track_18.mux_l1_in_1_/S clkbuf_3_7_0_prog_clk/X VGND VGND VPWR VPWR sky130_fd_sc_hd__dfxtp_1
XFILLER_5_114 VGND VGND VPWR VPWR sky130_fd_sc_hd__decap_8
XFILLER_4_40 VGND VGND VPWR VPWR sky130_fd_sc_hd__fill_1
XFILLER_4_84 VGND VGND VPWR VPWR sky130_fd_sc_hd__decap_8
XFILLER_14_213 VGND VGND VPWR VPWR sky130_fd_sc_hd__fill_1
XFILLER_29_7 VGND VGND VPWR VPWR sky130_fd_sc_hd__decap_8
Xmux_bottom_track_25.mux_l2_in_0_ mux_bottom_track_25.mux_l1_in_1_/X mux_bottom_track_25.mux_l1_in_0_/X
+ mux_bottom_track_25.mux_l2_in_1_/S mux_bottom_track_25.mux_l2_in_0_/X VGND VGND
+ VPWR VPWR sky130_fd_sc_hd__mux2_1
Xmem_right_track_30.sky130_fd_sc_hd__dfxtp_1_1_ mux_right_track_30.mux_l1_in_0_/S
+ mux_right_track_30.mux_l2_in_0_/S clkbuf_3_0_0_prog_clk/X VGND VGND VPWR VPWR sky130_fd_sc_hd__dfxtp_1
Xmem_bottom_track_17.sky130_fd_sc_hd__dfxtp_1_0_ mux_bottom_track_9.mux_l3_in_0_/S
+ mux_bottom_track_17.mux_l1_in_1_/S clkbuf_3_4_0_prog_clk/X VGND VGND VPWR VPWR sky130_fd_sc_hd__dfxtp_1
Xmux_right_track_34.mux_l1_in_0_ chany_bottom_in[1] right_bottom_grid_pin_39_ mux_right_track_34.mux_l1_in_0_/S
+ mux_right_track_34.mux_l1_in_0_/X VGND VGND VPWR VPWR sky130_fd_sc_hd__mux2_1
X_098_ chany_top_in[6] chany_bottom_out[7] VGND VGND VPWR VPWR sky130_fd_sc_hd__buf_2
XFILLER_20_39 VGND VGND VPWR VPWR sky130_fd_sc_hd__decap_8
XFILLER_28_179 VGND VGND VPWR VPWR sky130_fd_sc_hd__decap_8
XFILLER_28_135 VGND VGND VPWR VPWR sky130_fd_sc_hd__fill_1
Xmux_bottom_track_9.mux_l2_in_0_ mux_bottom_track_9.mux_l1_in_1_/X mux_bottom_track_9.mux_l1_in_0_/X
+ mux_bottom_track_9.mux_l2_in_0_/S mux_bottom_track_9.mux_l2_in_0_/X VGND VGND VPWR
+ VPWR sky130_fd_sc_hd__mux2_1
Xmux_bottom_track_25.mux_l1_in_1_ chanx_right_in[7] chanx_right_in[0] mux_bottom_track_25.mux_l1_in_1_/S
+ mux_bottom_track_25.mux_l1_in_1_/X VGND VGND VPWR VPWR sky130_fd_sc_hd__mux2_1
XFILLER_33_193 VGND VGND VPWR VPWR sky130_fd_sc_hd__decap_8
XFILLER_16_105 VGND VGND VPWR VPWR sky130_fd_sc_hd__fill_1
XPHY_100 VGND VPWR sky130_fd_sc_hd__tapvpwrvgnd_1
XPHY_188 VGND VPWR sky130_fd_sc_hd__tapvpwrvgnd_1
XPHY_177 VGND VPWR sky130_fd_sc_hd__tapvpwrvgnd_1
XPHY_166 VGND VPWR sky130_fd_sc_hd__tapvpwrvgnd_1
XFILLER_24_160 VGND VGND VPWR VPWR sky130_fd_sc_hd__fill_1
XPHY_155 VGND VPWR sky130_fd_sc_hd__tapvpwrvgnd_1
XPHY_144 VGND VPWR sky130_fd_sc_hd__tapvpwrvgnd_1
XPHY_133 VGND VPWR sky130_fd_sc_hd__tapvpwrvgnd_1
XPHY_122 VGND VPWR sky130_fd_sc_hd__tapvpwrvgnd_1
XPHY_111 VGND VPWR sky130_fd_sc_hd__tapvpwrvgnd_1
XPHY_2 VGND VGND VPWR VPWR sky130_fd_sc_hd__decap_3
XFILLER_30_152 VGND VGND VPWR VPWR sky130_fd_sc_hd__fill_1
XFILLER_21_141 VGND VGND VPWR VPWR sky130_fd_sc_hd__fill_1
Xmux_bottom_track_9.mux_l1_in_1_ chanx_right_in[9] chanx_right_in[2] mux_bottom_track_9.mux_l1_in_1_/S
+ mux_bottom_track_9.mux_l1_in_1_/X VGND VGND VPWR VPWR sky130_fd_sc_hd__mux2_1
XFILLER_8_101 VGND VGND VPWR VPWR sky130_fd_sc_hd__fill_1