* NGSPICE file created from sb_0__1_.ext - technology: sky130A

* Black-box entry subcircuit for sky130_fd_sc_hd__dfxtp_1 abstract view
.subckt sky130_fd_sc_hd__dfxtp_1 D Q CLK VGND VNB VPB VPWR
.ends

* Black-box entry subcircuit for sky130_fd_sc_hd__diode_2 abstract view
.subckt sky130_fd_sc_hd__diode_2 DIODE VGND VNB VPB VPWR
.ends

* Black-box entry subcircuit for sky130_fd_sc_hd__decap_4 abstract view
.subckt sky130_fd_sc_hd__decap_4 VGND VNB VPB VPWR
.ends

* Black-box entry subcircuit for sky130_fd_sc_hd__mux2_1 abstract view
.subckt sky130_fd_sc_hd__mux2_1 A0 A1 S X VGND VNB VPB VPWR
.ends

* Black-box entry subcircuit for sky130_fd_sc_hd__fill_2 abstract view
.subckt sky130_fd_sc_hd__fill_2 VGND VNB VPB VPWR
.ends

* Black-box entry subcircuit for sky130_fd_sc_hd__decap_12 abstract view
.subckt sky130_fd_sc_hd__decap_12 VGND VNB VPB VPWR
.ends

* Black-box entry subcircuit for sky130_fd_sc_hd__decap_8 abstract view
.subckt sky130_fd_sc_hd__decap_8 VGND VNB VPB VPWR
.ends

* Black-box entry subcircuit for sky130_fd_sc_hd__decap_3 abstract view
.subckt sky130_fd_sc_hd__decap_3 VGND VNB VPB VPWR
.ends

* Black-box entry subcircuit for sky130_fd_sc_hd__buf_4 abstract view
.subckt sky130_fd_sc_hd__buf_4 A X VGND VNB VPB VPWR
.ends

* Black-box entry subcircuit for sky130_fd_sc_hd__conb_1 abstract view
.subckt sky130_fd_sc_hd__conb_1 HI LO VGND VNB VPB VPWR
.ends

* Black-box entry subcircuit for sky130_fd_sc_hd__clkbuf_1 abstract view
.subckt sky130_fd_sc_hd__clkbuf_1 A X VGND VNB VPB VPWR
.ends

* Black-box entry subcircuit for sky130_fd_sc_hd__buf_2 abstract view
.subckt sky130_fd_sc_hd__buf_2 A X VGND VNB VPB VPWR
.ends

* Black-box entry subcircuit for sky130_fd_sc_hd__fill_1 abstract view
.subckt sky130_fd_sc_hd__fill_1 VGND VNB VPB VPWR
.ends

* Black-box entry subcircuit for sky130_fd_sc_hd__tapvpwrvgnd_1 abstract view
.subckt sky130_fd_sc_hd__tapvpwrvgnd_1 VGND VPWR
.ends

* Black-box entry subcircuit for sky130_fd_sc_hd__decap_6 abstract view
.subckt sky130_fd_sc_hd__decap_6 VGND VNB VPB VPWR
.ends

* Black-box entry subcircuit for sky130_fd_sc_hd__clkbuf_16 abstract view
.subckt sky130_fd_sc_hd__clkbuf_16 A X VGND VNB VPB VPWR
.ends

.subckt sb_0__1_ bottom_left_grid_pin_1_ ccff_head ccff_tail chanx_right_in[0] chanx_right_in[10]
+ chanx_right_in[11] chanx_right_in[12] chanx_right_in[13] chanx_right_in[14] chanx_right_in[15]
+ chanx_right_in[16] chanx_right_in[17] chanx_right_in[18] chanx_right_in[19] chanx_right_in[1]
+ chanx_right_in[2] chanx_right_in[3] chanx_right_in[4] chanx_right_in[5] chanx_right_in[6]
+ chanx_right_in[7] chanx_right_in[8] chanx_right_in[9] chanx_right_out[0] chanx_right_out[10]
+ chanx_right_out[11] chanx_right_out[12] chanx_right_out[13] chanx_right_out[14]
+ chanx_right_out[15] chanx_right_out[16] chanx_right_out[17] chanx_right_out[18]
+ chanx_right_out[19] chanx_right_out[1] chanx_right_out[2] chanx_right_out[3] chanx_right_out[4]
+ chanx_right_out[5] chanx_right_out[6] chanx_right_out[7] chanx_right_out[8] chanx_right_out[9]
+ chany_bottom_in[0] chany_bottom_in[10] chany_bottom_in[11] chany_bottom_in[12] chany_bottom_in[13]
+ chany_bottom_in[14] chany_bottom_in[15] chany_bottom_in[16] chany_bottom_in[17]
+ chany_bottom_in[18] chany_bottom_in[19] chany_bottom_in[1] chany_bottom_in[2] chany_bottom_in[3]
+ chany_bottom_in[4] chany_bottom_in[5] chany_bottom_in[6] chany_bottom_in[7] chany_bottom_in[8]
+ chany_bottom_in[9] chany_bottom_out[0] chany_bottom_out[10] chany_bottom_out[11]
+ chany_bottom_out[12] chany_bottom_out[13] chany_bottom_out[14] chany_bottom_out[15]
+ chany_bottom_out[16] chany_bottom_out[17] chany_bottom_out[18] chany_bottom_out[19]
+ chany_bottom_out[1] chany_bottom_out[2] chany_bottom_out[3] chany_bottom_out[4]
+ chany_bottom_out[5] chany_bottom_out[6] chany_bottom_out[7] chany_bottom_out[8]
+ chany_bottom_out[9] chany_top_in[0] chany_top_in[10] chany_top_in[11] chany_top_in[12]
+ chany_top_in[13] chany_top_in[14] chany_top_in[15] chany_top_in[16] chany_top_in[17]
+ chany_top_in[18] chany_top_in[19] chany_top_in[1] chany_top_in[2] chany_top_in[3]
+ chany_top_in[4] chany_top_in[5] chany_top_in[6] chany_top_in[7] chany_top_in[8]
+ chany_top_in[9] chany_top_out[0] chany_top_out[10] chany_top_out[11] chany_top_out[12]
+ chany_top_out[13] chany_top_out[14] chany_top_out[15] chany_top_out[16] chany_top_out[17]
+ chany_top_out[18] chany_top_out[19] chany_top_out[1] chany_top_out[2] chany_top_out[3]
+ chany_top_out[4] chany_top_out[5] chany_top_out[6] chany_top_out[7] chany_top_out[8]
+ chany_top_out[9] prog_clk right_bottom_grid_pin_34_ right_bottom_grid_pin_35_ right_bottom_grid_pin_36_
+ right_bottom_grid_pin_37_ right_bottom_grid_pin_38_ right_bottom_grid_pin_39_ right_bottom_grid_pin_40_
+ right_bottom_grid_pin_41_ top_left_grid_pin_1_ VPWR VGND
Xmem_right_track_20.sky130_fd_sc_hd__dfxtp_1_1_ mux_right_track_20.mux_l1_in_1_/S
+ mux_right_track_20.mux_l2_in_0_/S clkbuf_3_7_0_prog_clk/X VGND VGND VPWR VPWR sky130_fd_sc_hd__dfxtp_1
XANTENNA_mem_right_track_0.sky130_fd_sc_hd__dfxtp_1_0__CLK clkbuf_3_6_0_prog_clk/X
+ VGND VGND VPWR VPWR sky130_fd_sc_hd__diode_2
Xmem_right_track_2.sky130_fd_sc_hd__dfxtp_1_0_ mux_right_track_0.mux_l3_in_0_/S mux_right_track_2.mux_l1_in_0_/S
+ clkbuf_3_6_0_prog_clk/X VGND VGND VPWR VPWR sky130_fd_sc_hd__dfxtp_1
XANTENNA_mem_right_track_10.sky130_fd_sc_hd__dfxtp_1_2__D mux_right_track_10.mux_l2_in_0_/S
+ VGND VGND VPWR VPWR sky130_fd_sc_hd__diode_2
XFILLER_13_177 VGND VGND VPWR VPWR sky130_fd_sc_hd__decap_4
XANTENNA_mux_right_track_18.mux_l1_in_0__S mux_right_track_18.mux_l1_in_1_/S VGND
+ VGND VPWR VPWR sky130_fd_sc_hd__diode_2
Xmux_bottom_track_3.mux_l1_in_1_ chanx_right_in[11] chanx_right_in[4] mux_bottom_track_3.mux_l1_in_1_/S
+ mux_bottom_track_3.mux_l1_in_1_/X VGND VGND VPWR VPWR sky130_fd_sc_hd__mux2_1
XANTENNA_mux_right_track_2.mux_l3_in_0__A0 mux_right_track_2.mux_l2_in_1_/X VGND VGND
+ VPWR VPWR sky130_fd_sc_hd__diode_2
XANTENNA_mem_right_track_4.sky130_fd_sc_hd__dfxtp_1_2__D mux_right_track_4.mux_l2_in_0_/S
+ VGND VGND VPWR VPWR sky130_fd_sc_hd__diode_2
XFILLER_27_236 VGND VGND VPWR VPWR sky130_fd_sc_hd__fill_2
XFILLER_27_225 VGND VGND VPWR VPWR sky130_fd_sc_hd__fill_2
XFILLER_10_125 VGND VGND VPWR VPWR sky130_fd_sc_hd__fill_2
XFILLER_12_32 VGND VGND VPWR VPWR sky130_fd_sc_hd__decap_12
XFILLER_37_62 VGND VGND VPWR VPWR sky130_fd_sc_hd__decap_12
XFILLER_37_51 VGND VGND VPWR VPWR sky130_fd_sc_hd__decap_8
XFILLER_18_247 VGND VGND VPWR VPWR sky130_fd_sc_hd__fill_2
XANTENNA__124__A _124_/A VGND VGND VPWR VPWR sky130_fd_sc_hd__diode_2
XFILLER_5_151 VGND VGND VPWR VPWR sky130_fd_sc_hd__decap_3
XFILLER_5_184 VGND VGND VPWR VPWR sky130_fd_sc_hd__fill_2
XFILLER_24_206 VGND VGND VPWR VPWR sky130_fd_sc_hd__fill_2
XFILLER_32_250 VGND VGND VPWR VPWR sky130_fd_sc_hd__fill_2
XANTENNA_mux_right_track_36.mux_l2_in_0__A1 mux_right_track_36.mux_l1_in_0_/X VGND
+ VGND VPWR VPWR sky130_fd_sc_hd__diode_2
XANTENNA_mem_top_track_32.sky130_fd_sc_hd__dfxtp_1_1__CLK clkbuf_3_3_0_prog_clk/X
+ VGND VGND VPWR VPWR sky130_fd_sc_hd__diode_2
XANTENNA_mux_right_track_4.mux_l1_in_0__A1 chany_top_in[1] VGND VGND VPWR VPWR sky130_fd_sc_hd__diode_2
Xmux_right_track_36.sky130_fd_sc_hd__buf_4_0_ mux_right_track_36.mux_l2_in_0_/X _067_/A
+ VGND VGND VPWR VPWR sky130_fd_sc_hd__buf_4
XANTENNA_mux_top_track_0.mux_l1_in_0__A0 chanx_right_in[1] VGND VGND VPWR VPWR sky130_fd_sc_hd__diode_2
X_062_ _062_/HI _062_/LO VGND VGND VPWR VPWR sky130_fd_sc_hd__conb_1
XFILLER_23_86 VGND VGND VPWR VPWR sky130_fd_sc_hd__decap_12
Xmem_right_track_8.sky130_fd_sc_hd__dfxtp_1_1_ mux_right_track_8.mux_l1_in_0_/S mux_right_track_8.mux_l2_in_1_/S
+ clkbuf_3_5_0_prog_clk/X VGND VGND VPWR VPWR sky130_fd_sc_hd__dfxtp_1
XANTENNA_mux_bottom_track_1.mux_l3_in_0__S mux_bottom_track_1.mux_l3_in_0_/S VGND
+ VGND VPWR VPWR sky130_fd_sc_hd__diode_2
XANTENNA__119__A chany_bottom_in[5] VGND VGND VPWR VPWR sky130_fd_sc_hd__diode_2
XANTENNA_mem_top_track_8.sky130_fd_sc_hd__dfxtp_1_0__D mux_top_track_4.mux_l3_in_0_/S
+ VGND VGND VPWR VPWR sky130_fd_sc_hd__diode_2
XANTENNA_mem_right_track_6.sky130_fd_sc_hd__dfxtp_1_2__CLK clkbuf_3_5_0_prog_clk/X
+ VGND VGND VPWR VPWR sky130_fd_sc_hd__diode_2
XANTENNA_clkbuf_2_1_0_prog_clk_A clkbuf_0_prog_clk/X VGND VGND VPWR VPWR sky130_fd_sc_hd__diode_2
Xclkbuf_3_4_0_prog_clk clkbuf_3_5_0_prog_clk/A clkbuf_3_4_0_prog_clk/X VGND VGND VPWR
+ VPWR sky130_fd_sc_hd__clkbuf_1
XANTENNA_mux_right_track_2.mux_l1_in_2__A1 right_bottom_grid_pin_39_ VGND VGND VPWR
+ VPWR sky130_fd_sc_hd__diode_2
X_114_ chany_bottom_in[10] chany_top_out[11] VGND VGND VPWR VPWR sky130_fd_sc_hd__buf_2
X_045_ _045_/HI _045_/LO VGND VGND VPWR VPWR sky130_fd_sc_hd__conb_1
XFILLER_38_117 VGND VGND VPWR VPWR sky130_fd_sc_hd__fill_1
XANTENNA_mem_top_track_24.sky130_fd_sc_hd__dfxtp_1_2__CLK clkbuf_3_3_0_prog_clk/X
+ VGND VGND VPWR VPWR sky130_fd_sc_hd__diode_2
XANTENNA_mux_bottom_track_25.mux_l3_in_0__S mux_bottom_track_25.mux_l3_in_0_/S VGND
+ VGND VPWR VPWR sky130_fd_sc_hd__diode_2
Xmem_bottom_track_25.sky130_fd_sc_hd__dfxtp_1_2_ mux_bottom_track_25.mux_l2_in_1_/S
+ mux_bottom_track_25.mux_l3_in_0_/S clkbuf_3_2_0_prog_clk/X VGND VGND VPWR VPWR sky130_fd_sc_hd__dfxtp_1
Xmux_bottom_track_17.mux_l1_in_0_ chany_top_in[17] chany_top_in[8] mux_bottom_track_17.mux_l1_in_1_/S
+ mux_bottom_track_17.mux_l1_in_0_/X VGND VGND VPWR VPWR sky130_fd_sc_hd__mux2_1
XFILLER_20_32 VGND VGND VPWR VPWR sky130_fd_sc_hd__decap_12
XFILLER_29_74 VGND VGND VPWR VPWR sky130_fd_sc_hd__decap_12
XFILLER_6_56 VGND VGND VPWR VPWR sky130_fd_sc_hd__decap_12
XANTENNA_mem_bottom_track_33.sky130_fd_sc_hd__dfxtp_1_1__D mux_bottom_track_33.mux_l1_in_1_/S
+ VGND VGND VPWR VPWR sky130_fd_sc_hd__diode_2
XANTENNA_mux_right_track_0.mux_l1_in_1__S mux_right_track_0.mux_l1_in_1_/S VGND VGND
+ VPWR VPWR sky130_fd_sc_hd__diode_2
XFILLER_13_3 VGND VGND VPWR VPWR sky130_fd_sc_hd__decap_12
XANTENNA_mem_bottom_track_9.sky130_fd_sc_hd__dfxtp_1_0__D mux_bottom_track_5.mux_l3_in_0_/S
+ VGND VGND VPWR VPWR sky130_fd_sc_hd__diode_2
XANTENNA_mux_right_track_2.mux_l2_in_1__A1 mux_right_track_2.mux_l1_in_2_/X VGND VGND
+ VPWR VPWR sky130_fd_sc_hd__diode_2
XFILLER_25_153 VGND VGND VPWR VPWR sky130_fd_sc_hd__fill_1
XANTENNA_mux_right_track_22.sky130_fd_sc_hd__buf_4_0__A mux_right_track_22.mux_l2_in_0_/X
+ VGND VGND VPWR VPWR sky130_fd_sc_hd__diode_2
XFILLER_15_98 VGND VGND VPWR VPWR sky130_fd_sc_hd__decap_12
XFILLER_31_86 VGND VGND VPWR VPWR sky130_fd_sc_hd__decap_12
XFILLER_0_230 VGND VGND VPWR VPWR sky130_fd_sc_hd__fill_2
Xmux_bottom_track_3.sky130_fd_sc_hd__buf_4_0_ mux_bottom_track_3.mux_l3_in_0_/X _104_/A
+ VGND VGND VPWR VPWR sky130_fd_sc_hd__buf_4
XANTENNA_mux_bottom_track_3.mux_l1_in_1__A0 chanx_right_in[11] VGND VGND VPWR VPWR
+ sky130_fd_sc_hd__diode_2
XFILLER_31_156 VGND VGND VPWR VPWR sky130_fd_sc_hd__decap_4
XANTENNA_mux_top_track_0.mux_l2_in_1__S mux_top_track_0.mux_l2_in_1_/S VGND VGND VPWR
+ VPWR sky130_fd_sc_hd__diode_2
XFILLER_16_131 VGND VGND VPWR VPWR sky130_fd_sc_hd__fill_2
XFILLER_16_175 VGND VGND VPWR VPWR sky130_fd_sc_hd__fill_2
XPHY_170 VGND VPWR sky130_fd_sc_hd__tapvpwrvgnd_1
XPHY_181 VGND VPWR sky130_fd_sc_hd__tapvpwrvgnd_1
XPHY_192 VGND VPWR sky130_fd_sc_hd__tapvpwrvgnd_1
XFILLER_39_267 VGND VGND VPWR VPWR sky130_fd_sc_hd__decap_8
Xmem_right_track_20.sky130_fd_sc_hd__dfxtp_1_0_ mux_right_track_18.mux_l2_in_0_/S
+ mux_right_track_20.mux_l1_in_1_/S clkbuf_3_7_0_prog_clk/X VGND VGND VPWR VPWR sky130_fd_sc_hd__dfxtp_1
XANTENNA_mem_right_track_24.sky130_fd_sc_hd__dfxtp_1_0__CLK clkbuf_3_4_0_prog_clk/X
+ VGND VGND VPWR VPWR sky130_fd_sc_hd__diode_2
XFILLER_22_123 VGND VGND VPWR VPWR sky130_fd_sc_hd__fill_2
XFILLER_22_145 VGND VGND VPWR VPWR sky130_fd_sc_hd__fill_2
XFILLER_13_101 VGND VGND VPWR VPWR sky130_fd_sc_hd__fill_2
XFILLER_42_63 VGND VGND VPWR VPWR sky130_fd_sc_hd__decap_12
XFILLER_9_127 VGND VGND VPWR VPWR sky130_fd_sc_hd__fill_2
XFILLER_9_149 VGND VGND VPWR VPWR sky130_fd_sc_hd__decap_4
Xmux_bottom_track_3.mux_l1_in_0_ chany_top_in[13] chany_top_in[4] mux_bottom_track_3.mux_l1_in_1_/S
+ mux_bottom_track_3.mux_l1_in_0_/X VGND VGND VPWR VPWR sky130_fd_sc_hd__mux2_1
XFILLER_36_237 VGND VGND VPWR VPWR sky130_fd_sc_hd__decap_8
XFILLER_36_215 VGND VGND VPWR VPWR sky130_fd_sc_hd__fill_2
XANTENNA_mux_right_track_2.mux_l3_in_0__A1 mux_right_track_2.mux_l2_in_0_/X VGND VGND
+ VPWR VPWR sky130_fd_sc_hd__diode_2
XFILLER_42_218 VGND VGND VPWR VPWR sky130_fd_sc_hd__decap_8
XFILLER_10_104 VGND VGND VPWR VPWR sky130_fd_sc_hd__fill_1
XFILLER_12_44 VGND VGND VPWR VPWR sky130_fd_sc_hd__decap_12
XANTENNA_mux_bottom_track_3.mux_l2_in_0__A0 mux_bottom_track_3.mux_l1_in_1_/X VGND
+ VGND VPWR VPWR sky130_fd_sc_hd__diode_2
XANTENNA_mux_right_track_10.mux_l2_in_0__A0 right_bottom_grid_pin_35_ VGND VGND VPWR
+ VPWR sky130_fd_sc_hd__diode_2
XFILLER_37_74 VGND VGND VPWR VPWR sky130_fd_sc_hd__decap_12
XANTENNA_mem_right_track_16.sky130_fd_sc_hd__dfxtp_1_1__CLK clkbuf_3_7_0_prog_clk/X
+ VGND VGND VPWR VPWR sky130_fd_sc_hd__diode_2
XANTENNA_mem_bottom_track_3.sky130_fd_sc_hd__dfxtp_1_1__CLK clkbuf_3_3_0_prog_clk/X
+ VGND VGND VPWR VPWR sky130_fd_sc_hd__diode_2
XFILLER_23_240 VGND VGND VPWR VPWR sky130_fd_sc_hd__fill_2
XANTENNA_mux_top_track_0.mux_l1_in_0__A1 top_left_grid_pin_1_ VGND VGND VPWR VPWR
+ sky130_fd_sc_hd__diode_2
XFILLER_15_218 VGND VGND VPWR VPWR sky130_fd_sc_hd__fill_2
X_061_ _061_/HI _061_/LO VGND VGND VPWR VPWR sky130_fd_sc_hd__conb_1
Xmem_right_track_26.sky130_fd_sc_hd__dfxtp_1_1_ mux_right_track_26.mux_l1_in_0_/S
+ mux_right_track_26.mux_l2_in_0_/S clkbuf_3_4_0_prog_clk/X VGND VGND VPWR VPWR sky130_fd_sc_hd__dfxtp_1
XFILLER_23_98 VGND VGND VPWR VPWR sky130_fd_sc_hd__fill_1
XFILLER_2_188 VGND VGND VPWR VPWR sky130_fd_sc_hd__fill_2
Xmem_right_track_8.sky130_fd_sc_hd__dfxtp_1_0_ mux_right_track_6.mux_l3_in_0_/S mux_right_track_8.mux_l1_in_0_/S
+ clkbuf_3_5_0_prog_clk/X VGND VGND VPWR VPWR sky130_fd_sc_hd__dfxtp_1
XFILLER_14_262 VGND VGND VPWR VPWR sky130_fd_sc_hd__fill_2
XFILLER_20_221 VGND VGND VPWR VPWR sky130_fd_sc_hd__fill_2
XFILLER_20_243 VGND VGND VPWR VPWR sky130_fd_sc_hd__fill_2
XFILLER_20_276 VGND VGND VPWR VPWR sky130_fd_sc_hd__fill_1
XANTENNA_mem_top_track_0.sky130_fd_sc_hd__dfxtp_1_2__CLK clkbuf_3_1_0_prog_clk/X VGND
+ VGND VPWR VPWR sky130_fd_sc_hd__diode_2
XFILLER_18_32 VGND VGND VPWR VPWR sky130_fd_sc_hd__decap_12
X_113_ _113_/A chany_top_out[12] VGND VGND VPWR VPWR sky130_fd_sc_hd__buf_2
XFILLER_7_236 VGND VGND VPWR VPWR sky130_fd_sc_hd__fill_2
XFILLER_11_265 VGND VGND VPWR VPWR sky130_fd_sc_hd__decap_12
X_044_ _044_/HI _044_/LO VGND VGND VPWR VPWR sky130_fd_sc_hd__conb_1
XANTENNA_mux_top_track_24.mux_l1_in_0__S mux_top_track_24.mux_l1_in_0_/S VGND VGND
+ VPWR VPWR sky130_fd_sc_hd__diode_2
XFILLER_29_118 VGND VGND VPWR VPWR sky130_fd_sc_hd__fill_2
Xmem_bottom_track_25.sky130_fd_sc_hd__dfxtp_1_1_ mux_bottom_track_25.mux_l1_in_1_/S
+ mux_bottom_track_25.mux_l2_in_1_/S clkbuf_3_2_0_prog_clk/X VGND VGND VPWR VPWR sky130_fd_sc_hd__dfxtp_1
XFILLER_37_184 VGND VGND VPWR VPWR sky130_fd_sc_hd__fill_2
XANTENNA_mux_right_track_8.mux_l3_in_0__S mux_right_track_8.mux_l3_in_0_/S VGND VGND
+ VPWR VPWR sky130_fd_sc_hd__diode_2
XFILLER_20_44 VGND VGND VPWR VPWR sky130_fd_sc_hd__decap_12
XFILLER_29_86 VGND VGND VPWR VPWR sky130_fd_sc_hd__decap_12
XFILLER_28_184 VGND VGND VPWR VPWR sky130_fd_sc_hd__fill_2
XANTENNA_mem_top_track_0.sky130_fd_sc_hd__dfxtp_1_0__D ccff_head VGND VGND VPWR VPWR
+ sky130_fd_sc_hd__diode_2
XFILLER_6_68 VGND VGND VPWR VPWR sky130_fd_sc_hd__decap_12
XFILLER_19_184 VGND VGND VPWR VPWR sky130_fd_sc_hd__decap_3
XFILLER_34_176 VGND VGND VPWR VPWR sky130_fd_sc_hd__decap_4
XFILLER_34_154 VGND VGND VPWR VPWR sky130_fd_sc_hd__decap_4
XFILLER_1_209 VGND VGND VPWR VPWR sky130_fd_sc_hd__fill_2
XFILLER_25_176 VGND VGND VPWR VPWR sky130_fd_sc_hd__fill_1
XFILLER_25_132 VGND VGND VPWR VPWR sky130_fd_sc_hd__fill_2
XFILLER_40_146 VGND VGND VPWR VPWR sky130_fd_sc_hd__fill_2
XFILLER_0_242 VGND VGND VPWR VPWR sky130_fd_sc_hd__fill_2
XFILLER_16_121 VGND VGND VPWR VPWR sky130_fd_sc_hd__decap_3
XANTENNA_mux_bottom_track_3.mux_l1_in_1__A1 chanx_right_in[4] VGND VGND VPWR VPWR
+ sky130_fd_sc_hd__diode_2
XFILLER_31_179 VGND VGND VPWR VPWR sky130_fd_sc_hd__fill_2
XANTENNA_mem_bottom_track_25.sky130_fd_sc_hd__dfxtp_1_2__D mux_bottom_track_25.mux_l2_in_1_/S
+ VGND VGND VPWR VPWR sky130_fd_sc_hd__diode_2
XPHY_160 VGND VPWR sky130_fd_sc_hd__tapvpwrvgnd_1
XPHY_171 VGND VPWR sky130_fd_sc_hd__tapvpwrvgnd_1
XPHY_182 VGND VPWR sky130_fd_sc_hd__tapvpwrvgnd_1
XPHY_193 VGND VPWR sky130_fd_sc_hd__tapvpwrvgnd_1
XFILLER_39_257 VGND VGND VPWR VPWR sky130_fd_sc_hd__fill_2
XFILLER_39_224 VGND VGND VPWR VPWR sky130_fd_sc_hd__fill_2
XANTENNA_mux_right_track_6.mux_l1_in_1__A0 right_bottom_grid_pin_37_ VGND VGND VPWR
+ VPWR sky130_fd_sc_hd__diode_2
Xmem_bottom_track_3.sky130_fd_sc_hd__dfxtp_1_2_ mux_bottom_track_3.mux_l2_in_1_/S
+ mux_bottom_track_3.mux_l3_in_0_/S clkbuf_3_1_0_prog_clk/X VGND VGND VPWR VPWR sky130_fd_sc_hd__dfxtp_1
XFILLER_22_168 VGND VGND VPWR VPWR sky130_fd_sc_hd__fill_2
XFILLER_26_32 VGND VGND VPWR VPWR sky130_fd_sc_hd__decap_12
XFILLER_42_75 VGND VGND VPWR VPWR sky130_fd_sc_hd__decap_12
XANTENNA_mem_bottom_track_1.sky130_fd_sc_hd__dfxtp_1_0__D mux_right_track_36.mux_l2_in_0_/S
+ VGND VGND VPWR VPWR sky130_fd_sc_hd__diode_2
XFILLER_8_194 VGND VGND VPWR VPWR sky130_fd_sc_hd__decap_3
XANTENNA_mux_right_track_20.mux_l2_in_0__S mux_right_track_20.mux_l2_in_0_/S VGND
+ VGND VPWR VPWR sky130_fd_sc_hd__diode_2
XFILLER_10_138 VGND VGND VPWR VPWR sky130_fd_sc_hd__decap_4
XFILLER_10_149 VGND VGND VPWR VPWR sky130_fd_sc_hd__fill_2
XFILLER_12_56 VGND VGND VPWR VPWR sky130_fd_sc_hd__decap_12
XANTENNA_mux_bottom_track_3.mux_l2_in_0__A1 mux_bottom_track_3.mux_l1_in_0_/X VGND
+ VGND VPWR VPWR sky130_fd_sc_hd__diode_2
XANTENNA_mux_right_track_10.mux_l2_in_0__A1 mux_right_track_10.mux_l1_in_0_/X VGND
+ VGND VPWR VPWR sky130_fd_sc_hd__diode_2
XANTENNA_mux_right_track_4.mux_l1_in_3__A0 _043_/HI VGND VGND VPWR VPWR sky130_fd_sc_hd__diode_2
XFILLER_37_86 VGND VGND VPWR VPWR sky130_fd_sc_hd__decap_12
XFILLER_41_263 VGND VGND VPWR VPWR sky130_fd_sc_hd__decap_12
XFILLER_41_230 VGND VGND VPWR VPWR sky130_fd_sc_hd__fill_2
XANTENNA_mux_right_track_28.sky130_fd_sc_hd__buf_4_0__A mux_right_track_28.mux_l2_in_0_/X
+ VGND VGND VPWR VPWR sky130_fd_sc_hd__diode_2
XFILLER_5_197 VGND VGND VPWR VPWR sky130_fd_sc_hd__decap_4
XFILLER_5_175 VGND VGND VPWR VPWR sky130_fd_sc_hd__decap_3
XANTENNA_mux_right_track_6.mux_l2_in_0__A0 mux_right_track_6.mux_l1_in_1_/X VGND VGND
+ VPWR VPWR sky130_fd_sc_hd__diode_2
XANTENNA_mux_right_track_14.mux_l1_in_0__S mux_right_track_14.mux_l1_in_0_/S VGND
+ VGND VPWR VPWR sky130_fd_sc_hd__diode_2
XANTENNA_mem_right_track_12.sky130_fd_sc_hd__dfxtp_1_0__D mux_right_track_10.mux_l3_in_0_/S
+ VGND VGND VPWR VPWR sky130_fd_sc_hd__diode_2
XFILLER_32_263 VGND VGND VPWR VPWR sky130_fd_sc_hd__fill_2
Xmux_right_track_10.mux_l3_in_0_ mux_right_track_10.mux_l2_in_1_/X mux_right_track_10.mux_l2_in_0_/X
+ mux_right_track_10.mux_l3_in_0_/S mux_right_track_10.mux_l3_in_0_/X VGND VGND VPWR
+ VPWR sky130_fd_sc_hd__mux2_1
XFILLER_23_274 VGND VGND VPWR VPWR sky130_fd_sc_hd__decap_3
Xmem_right_track_26.sky130_fd_sc_hd__dfxtp_1_0_ mux_right_track_24.mux_l3_in_0_/S
+ mux_right_track_26.mux_l1_in_0_/S clkbuf_3_4_0_prog_clk/X VGND VGND VPWR VPWR sky130_fd_sc_hd__dfxtp_1
XFILLER_3_3 VGND VGND VPWR VPWR sky130_fd_sc_hd__decap_12
XFILLER_2_145 VGND VGND VPWR VPWR sky130_fd_sc_hd__fill_2
XFILLER_2_134 VGND VGND VPWR VPWR sky130_fd_sc_hd__fill_2
X_060_ _060_/HI _060_/LO VGND VGND VPWR VPWR sky130_fd_sc_hd__conb_1
XANTENNA_mem_right_track_6.sky130_fd_sc_hd__dfxtp_1_0__D mux_right_track_4.mux_l3_in_0_/S
+ VGND VGND VPWR VPWR sky130_fd_sc_hd__diode_2
XFILLER_0_15 VGND VGND VPWR VPWR sky130_fd_sc_hd__decap_12
XANTENNA_mux_top_track_16.mux_l2_in_0__S mux_top_track_16.mux_l2_in_0_/S VGND VGND
+ VPWR VPWR sky130_fd_sc_hd__diode_2
XANTENNA_mem_bottom_track_17.sky130_fd_sc_hd__dfxtp_1_0__D mux_bottom_track_9.mux_l3_in_0_/S
+ VGND VGND VPWR VPWR sky130_fd_sc_hd__diode_2
XFILLER_14_274 VGND VGND VPWR VPWR sky130_fd_sc_hd__fill_1
XFILLER_36_3 VGND VGND VPWR VPWR sky130_fd_sc_hd__decap_12
XFILLER_18_44 VGND VGND VPWR VPWR sky130_fd_sc_hd__decap_12
XFILLER_34_32 VGND VGND VPWR VPWR sky130_fd_sc_hd__decap_12
X_112_ chany_bottom_in[12] chany_top_out[13] VGND VGND VPWR VPWR sky130_fd_sc_hd__buf_2
X_043_ _043_/HI _043_/LO VGND VGND VPWR VPWR sky130_fd_sc_hd__conb_1
XFILLER_11_200 VGND VGND VPWR VPWR sky130_fd_sc_hd__fill_2
XFILLER_11_233 VGND VGND VPWR VPWR sky130_fd_sc_hd__decap_4
Xmux_right_track_10.mux_l2_in_1_ _061_/HI chany_bottom_in[9] mux_right_track_10.mux_l2_in_0_/S
+ mux_right_track_10.mux_l2_in_1_/X VGND VGND VPWR VPWR sky130_fd_sc_hd__mux2_1
Xmem_bottom_track_25.sky130_fd_sc_hd__dfxtp_1_0_ mux_bottom_track_17.mux_l3_in_0_/S
+ mux_bottom_track_25.mux_l1_in_1_/S clkbuf_3_2_0_prog_clk/X VGND VGND VPWR VPWR sky130_fd_sc_hd__dfxtp_1
XFILLER_4_229 VGND VGND VPWR VPWR sky130_fd_sc_hd__decap_3
XFILLER_4_207 VGND VGND VPWR VPWR sky130_fd_sc_hd__fill_2
XFILLER_20_56 VGND VGND VPWR VPWR sky130_fd_sc_hd__decap_12
XFILLER_29_98 VGND VGND VPWR VPWR sky130_fd_sc_hd__decap_12
XANTENNA_mux_bottom_track_3.mux_l2_in_1__S mux_bottom_track_3.mux_l2_in_1_/S VGND
+ VGND VPWR VPWR sky130_fd_sc_hd__diode_2
XFILLER_3_240 VGND VGND VPWR VPWR sky130_fd_sc_hd__fill_2
Xmem_top_track_16.sky130_fd_sc_hd__dfxtp_1_2_ mux_top_track_16.mux_l2_in_0_/S mux_top_track_16.mux_l3_in_0_/S
+ clkbuf_3_3_0_prog_clk/X VGND VGND VPWR VPWR sky130_fd_sc_hd__dfxtp_1
XFILLER_34_122 VGND VGND VPWR VPWR sky130_fd_sc_hd__fill_1
XFILLER_19_163 VGND VGND VPWR VPWR sky130_fd_sc_hd__decap_4
XFILLER_19_196 VGND VGND VPWR VPWR sky130_fd_sc_hd__fill_2
XFILLER_34_199 VGND VGND VPWR VPWR sky130_fd_sc_hd__decap_3
XFILLER_40_158 VGND VGND VPWR VPWR sky130_fd_sc_hd__fill_2
XANTENNA_mux_bottom_track_9.mux_l1_in_2__S mux_bottom_track_9.mux_l1_in_2_/S VGND
+ VGND VPWR VPWR sky130_fd_sc_hd__diode_2
XFILLER_16_144 VGND VGND VPWR VPWR sky130_fd_sc_hd__decap_3
XFILLER_31_114 VGND VGND VPWR VPWR sky130_fd_sc_hd__fill_2
XPHY_150 VGND VPWR sky130_fd_sc_hd__tapvpwrvgnd_1
XPHY_161 VGND VPWR sky130_fd_sc_hd__tapvpwrvgnd_1
XFILLER_16_188 VGND VGND VPWR VPWR sky130_fd_sc_hd__fill_2
XPHY_172 VGND VPWR sky130_fd_sc_hd__tapvpwrvgnd_1
XPHY_183 VGND VPWR sky130_fd_sc_hd__tapvpwrvgnd_1
XPHY_194 VGND VPWR sky130_fd_sc_hd__tapvpwrvgnd_1
XFILLER_39_236 VGND VGND VPWR VPWR sky130_fd_sc_hd__fill_2
XANTENNA_mux_right_track_12.mux_l3_in_0__S mux_right_track_12.mux_l3_in_0_/S VGND
+ VGND VPWR VPWR sky130_fd_sc_hd__diode_2
Xclkbuf_2_1_0_prog_clk clkbuf_0_prog_clk/X clkbuf_3_3_0_prog_clk/A VGND VGND VPWR
+ VPWR sky130_fd_sc_hd__clkbuf_1
XFILLER_22_103 VGND VGND VPWR VPWR sky130_fd_sc_hd__fill_2
XANTENNA_mux_right_track_6.mux_l1_in_1__A1 right_bottom_grid_pin_35_ VGND VGND VPWR
+ VPWR sky130_fd_sc_hd__diode_2
XFILLER_30_180 VGND VGND VPWR VPWR sky130_fd_sc_hd__fill_1
Xmem_bottom_track_3.sky130_fd_sc_hd__dfxtp_1_1_ mux_bottom_track_3.mux_l1_in_1_/S
+ mux_bottom_track_3.mux_l2_in_1_/S clkbuf_3_3_0_prog_clk/X VGND VGND VPWR VPWR sky130_fd_sc_hd__dfxtp_1
XANTENNA_mux_top_track_2.mux_l1_in_1__A0 chany_bottom_in[4] VGND VGND VPWR VPWR sky130_fd_sc_hd__diode_2
XFILLER_26_44 VGND VGND VPWR VPWR sky130_fd_sc_hd__decap_12
XFILLER_42_87 VGND VGND VPWR VPWR sky130_fd_sc_hd__decap_6
XFILLER_42_32 VGND VGND VPWR VPWR sky130_fd_sc_hd__decap_12
XFILLER_9_118 VGND VGND VPWR VPWR sky130_fd_sc_hd__fill_2
XFILLER_13_114 VGND VGND VPWR VPWR sky130_fd_sc_hd__fill_2
XFILLER_13_147 VGND VGND VPWR VPWR sky130_fd_sc_hd__fill_2
XFILLER_13_169 VGND VGND VPWR VPWR sky130_fd_sc_hd__fill_2
XFILLER_36_206 VGND VGND VPWR VPWR sky130_fd_sc_hd__fill_2
XFILLER_3_59 VGND VGND VPWR VPWR sky130_fd_sc_hd__fill_2
XFILLER_3_15 VGND VGND VPWR VPWR sky130_fd_sc_hd__decap_12
XANTENNA_mem_right_track_4.sky130_fd_sc_hd__dfxtp_1_0__CLK clkbuf_3_6_0_prog_clk/X
+ VGND VGND VPWR VPWR sky130_fd_sc_hd__diode_2
XFILLER_12_180 VGND VGND VPWR VPWR sky130_fd_sc_hd__fill_2
XFILLER_42_209 VGND VGND VPWR VPWR sky130_fd_sc_hd__decap_8
XANTENNA_mux_top_track_0.sky130_fd_sc_hd__buf_4_0__A mux_top_track_0.mux_l3_in_0_/X
+ VGND VGND VPWR VPWR sky130_fd_sc_hd__diode_2
XANTENNA_mux_right_track_4.mux_l1_in_3__A1 chany_bottom_in[5] VGND VGND VPWR VPWR
+ sky130_fd_sc_hd__diode_2
XFILLER_12_68 VGND VGND VPWR VPWR sky130_fd_sc_hd__decap_12
XFILLER_18_206 VGND VGND VPWR VPWR sky130_fd_sc_hd__decap_4
XFILLER_41_242 VGND VGND VPWR VPWR sky130_fd_sc_hd__fill_2
XFILLER_37_98 VGND VGND VPWR VPWR sky130_fd_sc_hd__decap_12
XFILLER_26_261 VGND VGND VPWR VPWR sky130_fd_sc_hd__decap_12
XFILLER_41_275 VGND VGND VPWR VPWR sky130_fd_sc_hd__fill_2
XANTENNA_mux_right_track_6.mux_l1_in_0__S mux_right_track_6.mux_l1_in_2_/S VGND VGND
+ VPWR VPWR sky130_fd_sc_hd__diode_2
XFILLER_5_110 VGND VGND VPWR VPWR sky130_fd_sc_hd__decap_12
XANTENNA_mux_right_track_6.mux_l2_in_0__A1 mux_right_track_6.mux_l1_in_0_/X VGND VGND
+ VPWR VPWR sky130_fd_sc_hd__diode_2
XANTENNA_mux_top_track_2.mux_l2_in_0__A0 mux_top_track_2.mux_l1_in_1_/X VGND VGND
+ VPWR VPWR sky130_fd_sc_hd__diode_2
XFILLER_17_261 VGND VGND VPWR VPWR sky130_fd_sc_hd__fill_2
XFILLER_4_80 VGND VGND VPWR VPWR sky130_fd_sc_hd__decap_12
XFILLER_23_220 VGND VGND VPWR VPWR sky130_fd_sc_hd__fill_2
XANTENNA_mux_right_track_14.mux_l1_in_0__A0 chany_top_in[19] VGND VGND VPWR VPWR sky130_fd_sc_hd__diode_2
XFILLER_2_102 VGND VGND VPWR VPWR sky130_fd_sc_hd__decap_8
Xmem_bottom_track_9.sky130_fd_sc_hd__dfxtp_1_2_ mux_bottom_track_9.mux_l2_in_0_/S
+ mux_bottom_track_9.mux_l3_in_0_/S clkbuf_3_0_0_prog_clk/X VGND VGND VPWR VPWR sky130_fd_sc_hd__dfxtp_1
XFILLER_0_27 VGND VGND VPWR VPWR sky130_fd_sc_hd__decap_4
XFILLER_14_242 VGND VGND VPWR VPWR sky130_fd_sc_hd__fill_2
XANTENNA_mem_right_track_10.sky130_fd_sc_hd__dfxtp_1_2__CLK clkbuf_3_5_0_prog_clk/X
+ VGND VGND VPWR VPWR sky130_fd_sc_hd__diode_2
XFILLER_29_3 VGND VGND VPWR VPWR sky130_fd_sc_hd__decap_12
XFILLER_18_56 VGND VGND VPWR VPWR sky130_fd_sc_hd__decap_12
XFILLER_34_44 VGND VGND VPWR VPWR sky130_fd_sc_hd__decap_12
XFILLER_11_212 VGND VGND VPWR VPWR sky130_fd_sc_hd__fill_1
X_111_ chany_bottom_in[13] chany_top_out[14] VGND VGND VPWR VPWR sky130_fd_sc_hd__buf_2
X_042_ _042_/HI _042_/LO VGND VGND VPWR VPWR sky130_fd_sc_hd__conb_1
XFILLER_11_245 VGND VGND VPWR VPWR sky130_fd_sc_hd__decap_4
XANTENNA_mux_bottom_track_5.mux_l1_in_2__A0 bottom_left_grid_pin_1_ VGND VGND VPWR
+ VPWR sky130_fd_sc_hd__diode_2
Xmux_right_track_10.mux_l2_in_0_ right_bottom_grid_pin_35_ mux_right_track_10.mux_l1_in_0_/X
+ mux_right_track_10.mux_l2_in_0_/S mux_right_track_10.mux_l2_in_0_/X VGND VGND VPWR
+ VPWR sky130_fd_sc_hd__mux2_1
Xmux_right_track_8.mux_l3_in_0_ mux_right_track_8.mux_l2_in_1_/X mux_right_track_8.mux_l2_in_0_/X
+ mux_right_track_8.mux_l3_in_0_/S mux_right_track_8.mux_l3_in_0_/X VGND VGND VPWR
+ VPWR sky130_fd_sc_hd__mux2_1
XFILLER_37_175 VGND VGND VPWR VPWR sky130_fd_sc_hd__decap_4
Xmux_top_track_0.mux_l3_in_0_ mux_top_track_0.mux_l2_in_1_/X mux_top_track_0.mux_l2_in_0_/X
+ mux_top_track_0.mux_l3_in_0_/S mux_top_track_0.mux_l3_in_0_/X VGND VGND VPWR VPWR
+ sky130_fd_sc_hd__mux2_1
XANTENNA__072__A _072_/A VGND VGND VPWR VPWR sky130_fd_sc_hd__diode_2
XFILLER_20_68 VGND VGND VPWR VPWR sky130_fd_sc_hd__decap_12
XFILLER_28_142 VGND VGND VPWR VPWR sky130_fd_sc_hd__decap_4
XFILLER_6_15 VGND VGND VPWR VPWR sky130_fd_sc_hd__decap_12
Xclkbuf_3_3_0_prog_clk clkbuf_3_3_0_prog_clk/A clkbuf_3_3_0_prog_clk/X VGND VGND VPWR
+ VPWR sky130_fd_sc_hd__clkbuf_1
Xmem_top_track_16.sky130_fd_sc_hd__dfxtp_1_1_ mux_top_track_16.mux_l1_in_1_/S mux_top_track_16.mux_l2_in_0_/S
+ clkbuf_3_3_0_prog_clk/X VGND VGND VPWR VPWR sky130_fd_sc_hd__dfxtp_1
XFILLER_34_101 VGND VGND VPWR VPWR sky130_fd_sc_hd__fill_1
XFILLER_25_112 VGND VGND VPWR VPWR sky130_fd_sc_hd__fill_2
XANTENNA_mux_bottom_track_5.mux_l2_in_1__A0 _058_/HI VGND VGND VPWR VPWR sky130_fd_sc_hd__diode_2
XFILLER_40_137 VGND VGND VPWR VPWR sky130_fd_sc_hd__fill_1
XANTENNA__067__A _067_/A VGND VGND VPWR VPWR sky130_fd_sc_hd__diode_2
XANTENNA_mux_right_track_12.mux_l2_in_1__A0 _062_/HI VGND VGND VPWR VPWR sky130_fd_sc_hd__diode_2
XFILLER_25_156 VGND VGND VPWR VPWR sky130_fd_sc_hd__decap_3
Xmem_right_track_12.sky130_fd_sc_hd__dfxtp_1_2_ mux_right_track_12.mux_l2_in_0_/S
+ mux_right_track_12.mux_l3_in_0_/S clkbuf_3_5_0_prog_clk/X VGND VGND VPWR VPWR sky130_fd_sc_hd__dfxtp_1
XFILLER_0_255 VGND VGND VPWR VPWR sky130_fd_sc_hd__fill_2
XANTENNA_mux_bottom_track_5.sky130_fd_sc_hd__buf_4_0__A mux_bottom_track_5.mux_l3_in_0_/X
+ VGND VGND VPWR VPWR sky130_fd_sc_hd__diode_2
XANTENNA_mux_right_track_6.mux_l1_in_3__S mux_right_track_6.mux_l1_in_2_/S VGND VGND
+ VPWR VPWR sky130_fd_sc_hd__diode_2
XFILLER_31_104 VGND VGND VPWR VPWR sky130_fd_sc_hd__decap_6
Xmux_right_track_8.mux_l2_in_1_ _045_/HI chany_bottom_in[8] mux_right_track_8.mux_l2_in_1_/S
+ mux_right_track_8.mux_l2_in_1_/X VGND VGND VPWR VPWR sky130_fd_sc_hd__mux2_1
XFILLER_16_167 VGND VGND VPWR VPWR sky130_fd_sc_hd__fill_2
XANTENNA_mux_right_track_4.mux_l3_in_0__S mux_right_track_4.mux_l3_in_0_/S VGND VGND
+ VPWR VPWR sky130_fd_sc_hd__diode_2
XPHY_140 VGND VPWR sky130_fd_sc_hd__tapvpwrvgnd_1
XPHY_151 VGND VPWR sky130_fd_sc_hd__tapvpwrvgnd_1
XPHY_162 VGND VPWR sky130_fd_sc_hd__tapvpwrvgnd_1
XPHY_173 VGND VPWR sky130_fd_sc_hd__tapvpwrvgnd_1
XPHY_184 VGND VPWR sky130_fd_sc_hd__tapvpwrvgnd_1
XPHY_195 VGND VPWR sky130_fd_sc_hd__tapvpwrvgnd_1
Xmux_top_track_0.mux_l2_in_1_ _046_/HI mux_top_track_0.mux_l1_in_2_/X mux_top_track_0.mux_l2_in_1_/S
+ mux_top_track_0.mux_l2_in_1_/X VGND VGND VPWR VPWR sky130_fd_sc_hd__mux2_1
XFILLER_11_3 VGND VGND VPWR VPWR sky130_fd_sc_hd__decap_12
Xmem_bottom_track_3.sky130_fd_sc_hd__dfxtp_1_0_ mux_bottom_track_1.mux_l3_in_0_/S
+ mux_bottom_track_3.mux_l1_in_1_/S clkbuf_3_3_0_prog_clk/X VGND VGND VPWR VPWR sky130_fd_sc_hd__dfxtp_1
XANTENNA_mux_top_track_2.mux_l1_in_1__A1 chanx_right_in[16] VGND VGND VPWR VPWR sky130_fd_sc_hd__diode_2
XANTENNA_mem_right_track_22.sky130_fd_sc_hd__dfxtp_1_0__D mux_right_track_20.mux_l2_in_0_/S
+ VGND VGND VPWR VPWR sky130_fd_sc_hd__diode_2
XFILLER_26_56 VGND VGND VPWR VPWR sky130_fd_sc_hd__decap_12