* NGSPICE file created from sb_0__2_.ext - technology: sky130A

* Black-box entry subcircuit for sky130_fd_sc_hd__diode_2 abstract view
.subckt sky130_fd_sc_hd__diode_2 DIODE VGND VNB VPB VPWR
.ends

* Black-box entry subcircuit for sky130_fd_sc_hd__dfxtp_1 abstract view
.subckt sky130_fd_sc_hd__dfxtp_1 D Q CLK VGND VNB VPB VPWR
.ends

* Black-box entry subcircuit for sky130_fd_sc_hd__decap_12 abstract view
.subckt sky130_fd_sc_hd__decap_12 VGND VNB VPB VPWR
.ends

* Black-box entry subcircuit for sky130_fd_sc_hd__buf_2 abstract view
.subckt sky130_fd_sc_hd__buf_2 A X VGND VNB VPB VPWR
.ends

* Black-box entry subcircuit for sky130_fd_sc_hd__decap_8 abstract view
.subckt sky130_fd_sc_hd__decap_8 VGND VNB VPB VPWR
.ends

* Black-box entry subcircuit for sky130_fd_sc_hd__decap_3 abstract view
.subckt sky130_fd_sc_hd__decap_3 VGND VNB VPB VPWR
.ends

* Black-box entry subcircuit for sky130_fd_sc_hd__fill_2 abstract view
.subckt sky130_fd_sc_hd__fill_2 VGND VNB VPB VPWR
.ends

* Black-box entry subcircuit for sky130_fd_sc_hd__buf_4 abstract view
.subckt sky130_fd_sc_hd__buf_4 A X VGND VNB VPB VPWR
.ends

* Black-box entry subcircuit for sky130_fd_sc_hd__decap_6 abstract view
.subckt sky130_fd_sc_hd__decap_6 VGND VNB VPB VPWR
.ends

* Black-box entry subcircuit for sky130_fd_sc_hd__mux2_1 abstract view
.subckt sky130_fd_sc_hd__mux2_1 A0 A1 S X VGND VNB VPB VPWR
.ends

* Black-box entry subcircuit for sky130_fd_sc_hd__tapvpwrvgnd_1 abstract view
.subckt sky130_fd_sc_hd__tapvpwrvgnd_1 VGND VPWR
.ends

* Black-box entry subcircuit for sky130_fd_sc_hd__decap_4 abstract view
.subckt sky130_fd_sc_hd__decap_4 VGND VNB VPB VPWR
.ends

* Black-box entry subcircuit for sky130_fd_sc_hd__fill_1 abstract view
.subckt sky130_fd_sc_hd__fill_1 VGND VNB VPB VPWR
.ends

* Black-box entry subcircuit for sky130_fd_sc_hd__conb_1 abstract view
.subckt sky130_fd_sc_hd__conb_1 HI LO VGND VNB VPB VPWR
.ends

* Black-box entry subcircuit for sky130_fd_sc_hd__clkbuf_1 abstract view
.subckt sky130_fd_sc_hd__clkbuf_1 A X VGND VNB VPB VPWR
.ends

* Black-box entry subcircuit for sky130_fd_sc_hd__clkbuf_16 abstract view
.subckt sky130_fd_sc_hd__clkbuf_16 A X VGND VNB VPB VPWR
.ends

.subckt sb_0__2_ SC_IN_BOT SC_IN_TOP SC_OUT_BOT SC_OUT_TOP bottom_left_grid_pin_1_
+ ccff_head ccff_tail chanx_right_in[0] chanx_right_in[10] chanx_right_in[11] chanx_right_in[12]
+ chanx_right_in[13] chanx_right_in[14] chanx_right_in[15] chanx_right_in[16] chanx_right_in[17]
+ chanx_right_in[18] chanx_right_in[19] chanx_right_in[1] chanx_right_in[2] chanx_right_in[3]
+ chanx_right_in[4] chanx_right_in[5] chanx_right_in[6] chanx_right_in[7] chanx_right_in[8]
+ chanx_right_in[9] chanx_right_out[0] chanx_right_out[10] chanx_right_out[11] chanx_right_out[12]
+ chanx_right_out[13] chanx_right_out[14] chanx_right_out[15] chanx_right_out[16]
+ chanx_right_out[17] chanx_right_out[18] chanx_right_out[19] chanx_right_out[1] chanx_right_out[2]
+ chanx_right_out[3] chanx_right_out[4] chanx_right_out[5] chanx_right_out[6] chanx_right_out[7]
+ chanx_right_out[8] chanx_right_out[9] chany_bottom_in[0] chany_bottom_in[10] chany_bottom_in[11]
+ chany_bottom_in[12] chany_bottom_in[13] chany_bottom_in[14] chany_bottom_in[15]
+ chany_bottom_in[16] chany_bottom_in[17] chany_bottom_in[18] chany_bottom_in[19]
+ chany_bottom_in[1] chany_bottom_in[2] chany_bottom_in[3] chany_bottom_in[4] chany_bottom_in[5]
+ chany_bottom_in[6] chany_bottom_in[7] chany_bottom_in[8] chany_bottom_in[9] chany_bottom_out[0]
+ chany_bottom_out[10] chany_bottom_out[11] chany_bottom_out[12] chany_bottom_out[13]
+ chany_bottom_out[14] chany_bottom_out[15] chany_bottom_out[16] chany_bottom_out[17]
+ chany_bottom_out[18] chany_bottom_out[19] chany_bottom_out[1] chany_bottom_out[2]
+ chany_bottom_out[3] chany_bottom_out[4] chany_bottom_out[5] chany_bottom_out[6]
+ chany_bottom_out[7] chany_bottom_out[8] chany_bottom_out[9] prog_clk right_bottom_grid_pin_34_
+ right_bottom_grid_pin_35_ right_bottom_grid_pin_36_ right_bottom_grid_pin_37_ right_bottom_grid_pin_38_
+ right_bottom_grid_pin_39_ right_bottom_grid_pin_40_ right_bottom_grid_pin_41_ right_top_grid_pin_1_
+ VPWR VGND
XANTENNA_mem_right_track_0.sky130_fd_sc_hd__dfxtp_1_0__CLK clkbuf_2_3_0_prog_clk/X
+ VGND VGND VPWR VPWR sky130_fd_sc_hd__diode_2
Xmem_right_track_20.sky130_fd_sc_hd__dfxtp_1_1_ mux_right_track_20.mux_l1_in_0_/S
+ mux_right_track_20.mux_l2_in_0_/S clkbuf_2_0_0_prog_clk/X VGND VGND VPWR VPWR sky130_fd_sc_hd__dfxtp_1
XFILLER_22_166 VGND VGND VPWR VPWR sky130_fd_sc_hd__decap_12
Xmem_right_track_2.sky130_fd_sc_hd__dfxtp_1_0_ mux_right_track_0.mux_l3_in_0_/S mux_right_track_2.mux_l1_in_1_/S
+ clkbuf_2_2_0_prog_clk/X VGND VGND VPWR VPWR sky130_fd_sc_hd__dfxtp_1
XANTENNA_mux_right_track_18.mux_l1_in_0__S mux_right_track_18.mux_l1_in_0_/S VGND
+ VGND VPWR VPWR sky130_fd_sc_hd__diode_2
X_83_ chanx_right_in[11] chany_bottom_out[7] VGND VGND VPWR VPWR sky130_fd_sc_hd__buf_2
XANTENNA_mux_right_track_2.mux_l3_in_0__A0 mux_right_track_2.mux_l2_in_1_/X VGND VGND
+ VPWR VPWR sky130_fd_sc_hd__diode_2
XANTENNA_mem_right_track_4.sky130_fd_sc_hd__dfxtp_1_2__D mux_right_track_4.mux_l2_in_0_/S
+ VGND VGND VPWR VPWR sky130_fd_sc_hd__diode_2
XFILLER_12_32 VGND VGND VPWR VPWR sky130_fd_sc_hd__decap_12
XFILLER_37_62 VGND VGND VPWR VPWR sky130_fd_sc_hd__decap_12
XFILLER_37_51 VGND VGND VPWR VPWR sky130_fd_sc_hd__decap_8
XFILLER_5_184 VGND VGND VPWR VPWR sky130_fd_sc_hd__decap_3
X_66_ _66_/A chanx_right_out[4] VGND VGND VPWR VPWR sky130_fd_sc_hd__buf_2
XFILLER_32_261 VGND VGND VPWR VPWR sky130_fd_sc_hd__decap_12
XANTENNA_mux_right_track_36.mux_l2_in_0__A1 mux_right_track_36.mux_l1_in_0_/X VGND
+ VGND VPWR VPWR sky130_fd_sc_hd__diode_2
XANTENNA_mux_right_track_4.mux_l1_in_0__A1 right_top_grid_pin_1_ VGND VGND VPWR VPWR
+ sky130_fd_sc_hd__diode_2
XFILLER_15_217 VGND VGND VPWR VPWR sky130_fd_sc_hd__fill_2
Xmux_right_track_36.sky130_fd_sc_hd__buf_4_0_ mux_right_track_36.mux_l2_in_0_/X _52_/A
+ VGND VGND VPWR VPWR sky130_fd_sc_hd__buf_4
XFILLER_23_86 VGND VGND VPWR VPWR sky130_fd_sc_hd__decap_12
XFILLER_2_154 VGND VGND VPWR VPWR sky130_fd_sc_hd__fill_2
Xmem_right_track_8.sky130_fd_sc_hd__dfxtp_1_1_ mux_right_track_8.mux_l1_in_0_/S mux_right_track_8.mux_l2_in_0_/S
+ clkbuf_2_2_0_prog_clk/X VGND VGND VPWR VPWR sky130_fd_sc_hd__dfxtp_1
XFILLER_0_68 VGND VGND VPWR VPWR sky130_fd_sc_hd__fill_2
XFILLER_14_261 VGND VGND VPWR VPWR sky130_fd_sc_hd__decap_12
XANTENNA_mem_right_track_6.sky130_fd_sc_hd__dfxtp_1_2__CLK clkbuf_2_2_0_prog_clk/X
+ VGND VGND VPWR VPWR sky130_fd_sc_hd__diode_2
XANTENNA_clkbuf_2_1_0_prog_clk_A clkbuf_1_0_0_prog_clk/X VGND VGND VPWR VPWR sky130_fd_sc_hd__diode_2
X_49_ _49_/A SC_OUT_BOT VGND VGND VPWR VPWR sky130_fd_sc_hd__buf_2
XFILLER_7_224 VGND VGND VPWR VPWR sky130_fd_sc_hd__fill_2
XFILLER_38_117 VGND VGND VPWR VPWR sky130_fd_sc_hd__decap_6
XFILLER_20_32 VGND VGND VPWR VPWR sky130_fd_sc_hd__decap_12
XFILLER_29_74 VGND VGND VPWR VPWR sky130_fd_sc_hd__decap_12
XFILLER_6_56 VGND VGND VPWR VPWR sky130_fd_sc_hd__decap_12
XANTENNA_mux_right_track_0.mux_l1_in_1__S mux_right_track_0.mux_l1_in_1_/S VGND VGND
+ VPWR VPWR sky130_fd_sc_hd__diode_2
XFILLER_13_3 VGND VGND VPWR VPWR sky130_fd_sc_hd__decap_12
XANTENNA_mux_right_track_2.mux_l2_in_1__A1 chany_bottom_in[17] VGND VGND VPWR VPWR
+ sky130_fd_sc_hd__diode_2
XANTENNA_mem_bottom_track_9.sky130_fd_sc_hd__dfxtp_1_0__D mux_bottom_track_5.mux_l2_in_0_/S
+ VGND VGND VPWR VPWR sky130_fd_sc_hd__diode_2
XFILLER_1_208 VGND VGND VPWR VPWR sky130_fd_sc_hd__fill_2
XFILLER_40_178 VGND VGND VPWR VPWR sky130_fd_sc_hd__decap_12
XANTENNA_mux_right_track_22.sky130_fd_sc_hd__buf_4_0__A mux_right_track_22.mux_l2_in_0_/X
+ VGND VGND VPWR VPWR sky130_fd_sc_hd__diode_2
XFILLER_15_98 VGND VGND VPWR VPWR sky130_fd_sc_hd__decap_12
XFILLER_31_86 VGND VGND VPWR VPWR sky130_fd_sc_hd__decap_12
Xmux_right_track_38.mux_l1_in_0_ chany_bottom_in[19] right_bottom_grid_pin_40_ mux_right_track_38.mux_l1_in_0_/S
+ mux_right_track_38.mux_l1_in_0_/X VGND VGND VPWR VPWR sky130_fd_sc_hd__mux2_1
XFILLER_31_123 VGND VGND VPWR VPWR sky130_fd_sc_hd__decap_12
XPHY_170 VGND VPWR sky130_fd_sc_hd__tapvpwrvgnd_1
XPHY_181 VGND VPWR sky130_fd_sc_hd__tapvpwrvgnd_1
XPHY_192 VGND VPWR sky130_fd_sc_hd__tapvpwrvgnd_1
XFILLER_39_245 VGND VGND VPWR VPWR sky130_fd_sc_hd__decap_8
Xmem_right_track_20.sky130_fd_sc_hd__dfxtp_1_0_ mux_right_track_18.mux_l2_in_0_/S
+ mux_right_track_20.mux_l1_in_0_/S clkbuf_2_1_0_prog_clk/X VGND VGND VPWR VPWR sky130_fd_sc_hd__dfxtp_1
XANTENNA_mem_right_track_24.sky130_fd_sc_hd__dfxtp_1_0__CLK clkbuf_2_3_0_prog_clk/X
+ VGND VGND VPWR VPWR sky130_fd_sc_hd__diode_2
XFILLER_22_178 VGND VGND VPWR VPWR sky130_fd_sc_hd__decap_12
XFILLER_13_123 VGND VGND VPWR VPWR sky130_fd_sc_hd__decap_3
XFILLER_13_145 VGND VGND VPWR VPWR sky130_fd_sc_hd__fill_2
XFILLER_42_63 VGND VGND VPWR VPWR sky130_fd_sc_hd__decap_12
XFILLER_9_138 VGND VGND VPWR VPWR sky130_fd_sc_hd__fill_2
XFILLER_3_79 VGND VGND VPWR VPWR sky130_fd_sc_hd__fill_2
XFILLER_36_215 VGND VGND VPWR VPWR sky130_fd_sc_hd__decap_12
X_82_ chanx_right_in[10] chany_bottom_out[8] VGND VGND VPWR VPWR sky130_fd_sc_hd__buf_2
XANTENNA_mux_right_track_2.mux_l3_in_0__A1 mux_right_track_2.mux_l2_in_0_/X VGND VGND
+ VPWR VPWR sky130_fd_sc_hd__diode_2
XFILLER_42_218 VGND VGND VPWR VPWR sky130_fd_sc_hd__decap_12
XFILLER_27_259 VGND VGND VPWR VPWR sky130_fd_sc_hd__fill_2
XANTENNA_mem_right_track_38.sky130_fd_sc_hd__dfxtp_1_1__CLK clkbuf_2_3_0_prog_clk/X
+ VGND VGND VPWR VPWR sky130_fd_sc_hd__diode_2
XFILLER_6_108 VGND VGND VPWR VPWR sky130_fd_sc_hd__decap_4
XFILLER_10_148 VGND VGND VPWR VPWR sky130_fd_sc_hd__fill_1
XFILLER_12_44 VGND VGND VPWR VPWR sky130_fd_sc_hd__decap_12
XANTENNA_mux_right_track_10.mux_l2_in_0__A0 _40_/HI VGND VGND VPWR VPWR sky130_fd_sc_hd__diode_2
XFILLER_37_74 VGND VGND VPWR VPWR sky130_fd_sc_hd__decap_12
XFILLER_18_204 VGND VGND VPWR VPWR sky130_fd_sc_hd__fill_2
XFILLER_18_248 VGND VGND VPWR VPWR sky130_fd_sc_hd__fill_2
XFILLER_5_152 VGND VGND VPWR VPWR sky130_fd_sc_hd__fill_1
XFILLER_5_196 VGND VGND VPWR VPWR sky130_fd_sc_hd__fill_2
XANTENNA_mem_right_track_16.sky130_fd_sc_hd__dfxtp_1_1__CLK clkbuf_2_1_0_prog_clk/X
+ VGND VGND VPWR VPWR sky130_fd_sc_hd__diode_2
X_65_ _65_/A chanx_right_out[5] VGND VGND VPWR VPWR sky130_fd_sc_hd__buf_2
XFILLER_32_273 VGND VGND VPWR VPWR sky130_fd_sc_hd__fill_2
Xmem_right_track_26.sky130_fd_sc_hd__dfxtp_1_1_ mux_right_track_26.mux_l1_in_0_/S
+ mux_right_track_26.mux_l2_in_0_/S clkbuf_2_1_0_prog_clk/X VGND VGND VPWR VPWR sky130_fd_sc_hd__dfxtp_1
XFILLER_2_100 VGND VGND VPWR VPWR sky130_fd_sc_hd__fill_2
XFILLER_23_98 VGND VGND VPWR VPWR sky130_fd_sc_hd__decap_12
XFILLER_2_144 VGND VGND VPWR VPWR sky130_fd_sc_hd__decap_6
Xmem_right_track_8.sky130_fd_sc_hd__dfxtp_1_0_ mux_right_track_6.mux_l3_in_0_/S mux_right_track_8.mux_l1_in_0_/S
+ clkbuf_2_2_0_prog_clk/X VGND VGND VPWR VPWR sky130_fd_sc_hd__dfxtp_1
XFILLER_0_58 VGND VGND VPWR VPWR sky130_fd_sc_hd__fill_2
XFILLER_14_240 VGND VGND VPWR VPWR sky130_fd_sc_hd__fill_1
XFILLER_14_273 VGND VGND VPWR VPWR sky130_fd_sc_hd__fill_2
X_48_ SC_IN_BOT SC_IN_TOP VGND VGND VPWR VPWR sky130_fd_sc_hd__buf_2
XFILLER_20_276 VGND VGND VPWR VPWR sky130_fd_sc_hd__fill_1
XFILLER_18_32 VGND VGND VPWR VPWR sky130_fd_sc_hd__decap_12
XFILLER_7_236 VGND VGND VPWR VPWR sky130_fd_sc_hd__fill_2
XFILLER_11_232 VGND VGND VPWR VPWR sky130_fd_sc_hd__fill_2
XFILLER_11_254 VGND VGND VPWR VPWR sky130_fd_sc_hd__fill_2
XFILLER_11_276 VGND VGND VPWR VPWR sky130_fd_sc_hd__fill_1
Xmem_bottom_track_25.sky130_fd_sc_hd__dfxtp_1_1_ mux_bottom_track_25.mux_l1_in_0_/S
+ ccff_tail clkbuf_2_3_0_prog_clk/X VGND VGND VPWR VPWR sky130_fd_sc_hd__dfxtp_1
XFILLER_37_184 VGND VGND VPWR VPWR sky130_fd_sc_hd__decap_12
XFILLER_37_151 VGND VGND VPWR VPWR sky130_fd_sc_hd__decap_12
XFILLER_1_90 VGND VGND VPWR VPWR sky130_fd_sc_hd__fill_2
XFILLER_20_44 VGND VGND VPWR VPWR sky130_fd_sc_hd__decap_12
XFILLER_29_86 VGND VGND VPWR VPWR sky130_fd_sc_hd__decap_12
XFILLER_6_68 VGND VGND VPWR VPWR sky130_fd_sc_hd__decap_12
XFILLER_19_173 VGND VGND VPWR VPWR sky130_fd_sc_hd__decap_8
XFILLER_19_184 VGND VGND VPWR VPWR sky130_fd_sc_hd__decap_4
XFILLER_34_154 VGND VGND VPWR VPWR sky130_fd_sc_hd__decap_12
XFILLER_25_110 VGND VGND VPWR VPWR sky130_fd_sc_hd__decap_12
XFILLER_31_98 VGND VGND VPWR VPWR sky130_fd_sc_hd__decap_12
XFILLER_31_179 VGND VGND VPWR VPWR sky130_fd_sc_hd__decap_4
XFILLER_31_168 VGND VGND VPWR VPWR sky130_fd_sc_hd__decap_4
XFILLER_31_135 VGND VGND VPWR VPWR sky130_fd_sc_hd__decap_12
XPHY_160 VGND VPWR sky130_fd_sc_hd__tapvpwrvgnd_1
XPHY_171 VGND VPWR sky130_fd_sc_hd__tapvpwrvgnd_1
XPHY_182 VGND VPWR sky130_fd_sc_hd__tapvpwrvgnd_1
XPHY_193 VGND VPWR sky130_fd_sc_hd__tapvpwrvgnd_1
XFILLER_30_190 VGND VGND VPWR VPWR sky130_fd_sc_hd__decap_12
XANTENNA_mux_right_track_6.mux_l1_in_1__A0 right_bottom_grid_pin_40_ VGND VGND VPWR
+ VPWR sky130_fd_sc_hd__diode_2
XFILLER_26_32 VGND VGND VPWR VPWR sky130_fd_sc_hd__decap_12
XFILLER_42_75 VGND VGND VPWR VPWR sky130_fd_sc_hd__decap_12
X_81_ chanx_right_in[9] chany_bottom_out[9] VGND VGND VPWR VPWR sky130_fd_sc_hd__buf_2
XFILLER_36_227 VGND VGND VPWR VPWR sky130_fd_sc_hd__decap_12
XANTENNA_mem_bottom_track_1.sky130_fd_sc_hd__dfxtp_1_0__D mux_right_track_38.mux_l2_in_0_/S
+ VGND VGND VPWR VPWR sky130_fd_sc_hd__diode_2
XFILLER_8_172 VGND VGND VPWR VPWR sky130_fd_sc_hd__decap_6
XANTENNA_mux_right_track_20.mux_l2_in_0__S mux_right_track_20.mux_l2_in_0_/S VGND
+ VGND VPWR VPWR sky130_fd_sc_hd__diode_2
XFILLER_10_116 VGND VGND VPWR VPWR sky130_fd_sc_hd__fill_2
XFILLER_12_56 VGND VGND VPWR VPWR sky130_fd_sc_hd__decap_12
XANTENNA_mux_right_track_10.mux_l2_in_0__A1 mux_right_track_10.mux_l1_in_0_/X VGND
+ VGND VPWR VPWR sky130_fd_sc_hd__diode_2
XFILLER_37_86 VGND VGND VPWR VPWR sky130_fd_sc_hd__decap_12
XFILLER_33_208 VGND VGND VPWR VPWR sky130_fd_sc_hd__decap_12
XANTENNA_mux_right_track_28.sky130_fd_sc_hd__buf_4_0__A mux_right_track_28.mux_l2_in_0_/X
+ VGND VGND VPWR VPWR sky130_fd_sc_hd__diode_2
X_64_ _64_/A chanx_right_out[6] VGND VGND VPWR VPWR sky130_fd_sc_hd__buf_2
XANTENNA_mux_right_track_6.mux_l2_in_0__A0 mux_right_track_6.mux_l1_in_1_/X VGND VGND
+ VPWR VPWR sky130_fd_sc_hd__diode_2
XANTENNA_mux_right_track_14.mux_l1_in_0__S mux_right_track_14.mux_l1_in_0_/S VGND
+ VGND VPWR VPWR sky130_fd_sc_hd__diode_2
XANTENNA_mem_right_track_12.sky130_fd_sc_hd__dfxtp_1_0__D mux_right_track_10.mux_l2_in_0_/S
+ VGND VGND VPWR VPWR sky130_fd_sc_hd__diode_2
Xmem_right_track_26.sky130_fd_sc_hd__dfxtp_1_0_ mux_right_track_24.mux_l2_in_0_/S
+ mux_right_track_26.mux_l1_in_0_/S clkbuf_2_1_0_prog_clk/X VGND VGND VPWR VPWR sky130_fd_sc_hd__dfxtp_1
XFILLER_3_3 VGND VGND VPWR VPWR sky130_fd_sc_hd__decap_12
XFILLER_2_134 VGND VGND VPWR VPWR sky130_fd_sc_hd__fill_1
XFILLER_2_167 VGND VGND VPWR VPWR sky130_fd_sc_hd__fill_2
XANTENNA_mem_right_track_6.sky130_fd_sc_hd__dfxtp_1_0__D mux_right_track_4.mux_l3_in_0_/S
+ VGND VGND VPWR VPWR sky130_fd_sc_hd__diode_2
XFILLER_0_15 VGND VGND VPWR VPWR sky130_fd_sc_hd__decap_12
XFILLER_36_3 VGND VGND VPWR VPWR sky130_fd_sc_hd__decap_12
X_47_ _47_/HI _47_/LO VGND VGND VPWR VPWR sky130_fd_sc_hd__conb_1
XFILLER_18_44 VGND VGND VPWR VPWR sky130_fd_sc_hd__decap_12
XFILLER_34_32 VGND VGND VPWR VPWR sky130_fd_sc_hd__decap_12
XFILLER_11_211 VGND VGND VPWR VPWR sky130_fd_sc_hd__fill_2
Xmem_bottom_track_25.sky130_fd_sc_hd__dfxtp_1_0_ mux_bottom_track_9.mux_l2_in_0_/S
+ mux_bottom_track_25.mux_l1_in_0_/S clkbuf_2_2_0_prog_clk/X VGND VGND VPWR VPWR sky130_fd_sc_hd__dfxtp_1
XFILLER_37_196 VGND VGND VPWR VPWR sky130_fd_sc_hd__decap_12
XFILLER_37_163 VGND VGND VPWR VPWR sky130_fd_sc_hd__decap_12
XANTENNA_clkbuf_1_0_0_prog_clk_A clkbuf_0_prog_clk/X VGND VGND VPWR VPWR sky130_fd_sc_hd__diode_2
XFILLER_20_56 VGND VGND VPWR VPWR sky130_fd_sc_hd__decap_12
XFILLER_29_98 VGND VGND VPWR VPWR sky130_fd_sc_hd__decap_12
XFILLER_28_141 VGND VGND VPWR VPWR sky130_fd_sc_hd__decap_12
XFILLER_3_262 VGND VGND VPWR VPWR sky130_fd_sc_hd__fill_2
XFILLER_3_240 VGND VGND VPWR VPWR sky130_fd_sc_hd__fill_2
XFILLER_34_166 VGND VGND VPWR VPWR sky130_fd_sc_hd__decap_12
XFILLER_31_147 VGND VGND VPWR VPWR sky130_fd_sc_hd__decap_8
XPHY_150 VGND VPWR sky130_fd_sc_hd__tapvpwrvgnd_1
XPHY_161 VGND VPWR sky130_fd_sc_hd__tapvpwrvgnd_1
XPHY_172 VGND VPWR sky130_fd_sc_hd__tapvpwrvgnd_1
XPHY_183 VGND VPWR sky130_fd_sc_hd__tapvpwrvgnd_1
XPHY_194 VGND VPWR sky130_fd_sc_hd__tapvpwrvgnd_1
Xclkbuf_2_1_0_prog_clk clkbuf_1_0_0_prog_clk/X clkbuf_2_1_0_prog_clk/X VGND VGND VPWR
+ VPWR sky130_fd_sc_hd__clkbuf_1
XANTENNA_mux_right_track_6.mux_l1_in_1__A1 right_bottom_grid_pin_38_ VGND VGND VPWR
+ VPWR sky130_fd_sc_hd__diode_2
XFILLER_7_90 VGND VGND VPWR VPWR sky130_fd_sc_hd__fill_2
XFILLER_26_44 VGND VGND VPWR VPWR sky130_fd_sc_hd__decap_12
XFILLER_42_87 VGND VGND VPWR VPWR sky130_fd_sc_hd__decap_6
XFILLER_42_32 VGND VGND VPWR VPWR sky130_fd_sc_hd__decap_12
XFILLER_9_118 VGND VGND VPWR VPWR sky130_fd_sc_hd__fill_2
XFILLER_13_169 VGND VGND VPWR VPWR sky130_fd_sc_hd__fill_2
XFILLER_3_59 VGND VGND VPWR VPWR sky130_fd_sc_hd__fill_2
XFILLER_3_15 VGND VGND VPWR VPWR sky130_fd_sc_hd__decap_12
X_80_ chanx_right_in[8] chany_bottom_out[10] VGND VGND VPWR VPWR sky130_fd_sc_hd__buf_2
XFILLER_36_239 VGND VGND VPWR VPWR sky130_fd_sc_hd__decap_4
XFILLER_8_151 VGND VGND VPWR VPWR sky130_fd_sc_hd__fill_2
XANTENNA_mem_right_track_4.sky130_fd_sc_hd__dfxtp_1_0__CLK clkbuf_2_2_0_prog_clk/X
+ VGND VGND VPWR VPWR sky130_fd_sc_hd__diode_2
XFILLER_12_68 VGND VGND VPWR VPWR sky130_fd_sc_hd__decap_12
XFILLER_41_220 VGND VGND VPWR VPWR sky130_fd_sc_hd__decap_12
XFILLER_37_98 VGND VGND VPWR VPWR sky130_fd_sc_hd__decap_12
XANTENNA_mux_right_track_6.mux_l1_in_0__S mux_right_track_6.mux_l1_in_1_/S VGND VGND
+ VPWR VPWR sky130_fd_sc_hd__diode_2
XANTENNA_mux_right_track_6.mux_l2_in_0__A1 mux_right_track_6.mux_l1_in_0_/X VGND VGND
+ VPWR VPWR sky130_fd_sc_hd__diode_2
XFILLER_5_176 VGND VGND VPWR VPWR sky130_fd_sc_hd__fill_1
X_63_ _63_/A chanx_right_out[7] VGND VGND VPWR VPWR sky130_fd_sc_hd__buf_2
XFILLER_17_261 VGND VGND VPWR VPWR sky130_fd_sc_hd__fill_2
XFILLER_23_220 VGND VGND VPWR VPWR sky130_fd_sc_hd__decap_6
XFILLER_23_242 VGND VGND VPWR VPWR sky130_fd_sc_hd__fill_2
XFILLER_2_124 VGND VGND VPWR VPWR sky130_fd_sc_hd__decap_4
XANTENNA_mux_right_track_14.mux_l1_in_0__A0 chany_bottom_in[11] VGND VGND VPWR VPWR
+ sky130_fd_sc_hd__diode_2
XFILLER_0_27 VGND VGND VPWR VPWR sky130_fd_sc_hd__decap_4
XFILLER_0_38 VGND VGND VPWR VPWR sky130_fd_sc_hd__fill_1
XFILLER_29_3 VGND VGND VPWR VPWR sky130_fd_sc_hd__decap_12
X_46_ _46_/HI _46_/LO VGND VGND VPWR VPWR sky130_fd_sc_hd__conb_1
XFILLER_18_56 VGND VGND VPWR VPWR sky130_fd_sc_hd__decap_12
XFILLER_34_44 VGND VGND VPWR VPWR sky130_fd_sc_hd__decap_12
Xmux_right_track_10.mux_l2_in_0_ _40_/HI mux_right_track_10.mux_l1_in_0_/X mux_right_track_10.mux_l2_in_0_/S
+ mux_right_track_10.mux_l2_in_0_/X VGND VGND VPWR VPWR sky130_fd_sc_hd__mux2_1
XFILLER_37_175 VGND VGND VPWR VPWR sky130_fd_sc_hd__decap_8
X_29_ _29_/HI _29_/LO VGND VGND VPWR VPWR sky130_fd_sc_hd__conb_1
XFILLER_4_208 VGND VGND VPWR VPWR sky130_fd_sc_hd__decap_6
XFILLER_20_68 VGND VGND VPWR VPWR sky130_fd_sc_hd__decap_12
XFILLER_6_15 VGND VGND VPWR VPWR sky130_fd_sc_hd__decap_12
XFILLER_3_274 VGND VGND VPWR VPWR sky130_fd_sc_hd__decap_3
XFILLER_34_178 VGND VGND VPWR VPWR sky130_fd_sc_hd__decap_12
XFILLER_25_123 VGND VGND VPWR VPWR sky130_fd_sc_hd__decap_12
XFILLER_25_167 VGND VGND VPWR VPWR sky130_fd_sc_hd__decap_12
XFILLER_0_244 VGND VGND VPWR VPWR sky130_fd_sc_hd__fill_2
XFILLER_0_222 VGND VGND VPWR VPWR sky130_fd_sc_hd__fill_1
XANTENNA_mux_bottom_track_5.sky130_fd_sc_hd__buf_4_0__A mux_bottom_track_5.mux_l2_in_0_/X
+ VGND VGND VPWR VPWR sky130_fd_sc_hd__diode_2
XFILLER_16_145 VGND VGND VPWR VPWR sky130_fd_sc_hd__decap_4
XANTENNA_mux_right_track_4.mux_l3_in_0__S mux_right_track_4.mux_l3_in_0_/S VGND VGND
+ VPWR VPWR sky130_fd_sc_hd__diode_2
XPHY_140 VGND VPWR sky130_fd_sc_hd__tapvpwrvgnd_1
XPHY_151 VGND VPWR sky130_fd_sc_hd__tapvpwrvgnd_1
XPHY_162 VGND VPWR sky130_fd_sc_hd__tapvpwrvgnd_1
XPHY_173 VGND VPWR sky130_fd_sc_hd__tapvpwrvgnd_1
XPHY_184 VGND VPWR sky130_fd_sc_hd__tapvpwrvgnd_1
XPHY_195 VGND VPWR sky130_fd_sc_hd__tapvpwrvgnd_1
XFILLER_39_259 VGND VGND VPWR VPWR sky130_fd_sc_hd__fill_2
XFILLER_11_3 VGND VGND VPWR VPWR sky130_fd_sc_hd__decap_12
XANTENNA_mem_right_track_22.sky130_fd_sc_hd__dfxtp_1_0__D mux_right_track_20.mux_l2_in_0_/S
+ VGND VGND VPWR VPWR sky130_fd_sc_hd__diode_2
XFILLER_26_56 VGND VGND VPWR VPWR sky130_fd_sc_hd__decap_12
XFILLER_42_44 VGND VGND VPWR VPWR sky130_fd_sc_hd__decap_12
XFILLER_21_192 VGND VGND VPWR VPWR sky130_fd_sc_hd__fill_1
XFILLER_3_27 VGND VGND VPWR VPWR sky130_fd_sc_hd__decap_12
XANTENNA_mem_right_track_28.sky130_fd_sc_hd__dfxtp_1_0__CLK clkbuf_2_0_0_prog_clk/X
+ VGND VGND VPWR VPWR sky130_fd_sc_hd__diode_2
XFILLER_8_196 VGND VGND VPWR VPWR sky130_fd_sc_hd__fill_2
XFILLER_12_192 VGND VGND VPWR VPWR sky130_fd_sc_hd__fill_1
XFILLER_35_251 VGND VGND VPWR VPWR sky130_fd_sc_hd__fill_2
XFILLER_35_240 VGND VGND VPWR VPWR sky130_fd_sc_hd__fill_2
XANTENNA_mux_right_track_22.mux_l1_in_0__A0 chany_bottom_in[7] VGND VGND VPWR VPWR
+ sky130_fd_sc_hd__diode_2
XFILLER_41_232 VGND VGND VPWR VPWR sky130_fd_sc_hd__decap_12
XFILLER_26_251 VGND VGND VPWR VPWR sky130_fd_sc_hd__decap_12
XFILLER_5_155 VGND VGND VPWR VPWR sky130_fd_sc_hd__fill_2
X_62_ _62_/A chanx_right_out[8] VGND VGND VPWR VPWR sky130_fd_sc_hd__buf_2
XFILLER_17_240 VGND VGND VPWR VPWR sky130_fd_sc_hd__fill_2
XFILLER_32_276 VGND VGND VPWR VPWR sky130_fd_sc_hd__fill_1
XFILLER_23_254 VGND VGND VPWR VPWR sky130_fd_sc_hd__fill_2
XFILLER_23_276 VGND VGND VPWR VPWR sky130_fd_sc_hd__fill_1
XANTENNA_mux_right_track_14.mux_l1_in_0__A1 right_bottom_grid_pin_36_ VGND VGND VPWR
+ VPWR sky130_fd_sc_hd__diode_2
Xmem_bottom_track_9.sky130_fd_sc_hd__dfxtp_1_1_ mux_bottom_track_9.mux_l1_in_0_/S
+ mux_bottom_track_9.mux_l2_in_0_/S clkbuf_2_3_0_prog_clk/X VGND VGND VPWR VPWR sky130_fd_sc_hd__dfxtp_1
XFILLER_9_15 VGND VGND VPWR VPWR sky130_fd_sc_hd__decap_12
XFILLER_9_59 VGND VGND VPWR VPWR sky130_fd_sc_hd__fill_2
XFILLER_14_210 VGND VGND VPWR VPWR sky130_fd_sc_hd__fill_2
XFILLER_14_232 VGND VGND VPWR VPWR sky130_fd_sc_hd__fill_2
XFILLER_14_276 VGND VGND VPWR VPWR sky130_fd_sc_hd__fill_1
X_45_ _45_/HI _45_/LO VGND VGND VPWR VPWR sky130_fd_sc_hd__conb_1
XFILLER_20_224 VGND VGND VPWR VPWR sky130_fd_sc_hd__decap_8
XFILLER_20_235 VGND VGND VPWR VPWR sky130_fd_sc_hd__decap_8
XANTENNA_mux_right_track_10.mux_l1_in_0__S mux_right_track_10.mux_l1_in_0_/S VGND
+ VGND VPWR VPWR sky130_fd_sc_hd__diode_2
XFILLER_18_68 VGND VGND VPWR VPWR sky130_fd_sc_hd__decap_12
XFILLER_34_56 VGND VGND VPWR VPWR sky130_fd_sc_hd__decap_12
XFILLER_7_228 VGND VGND VPWR VPWR sky130_fd_sc_hd__decap_4
XFILLER_11_268 VGND VGND VPWR VPWR sky130_fd_sc_hd__fill_2
XANTENNA_mux_right_track_38.mux_l2_in_0__S mux_right_track_38.mux_l2_in_0_/S VGND
+ VGND VPWR VPWR sky130_fd_sc_hd__diode_2
XFILLER_41_3 VGND VGND VPWR VPWR sky130_fd_sc_hd__decap_12
XFILLER_37_110 VGND VGND VPWR VPWR sky130_fd_sc_hd__decap_12
X_28_ _28_/HI _28_/LO VGND VGND VPWR VPWR sky130_fd_sc_hd__conb_1
XFILLER_28_154 VGND VGND VPWR VPWR sky130_fd_sc_hd__decap_12
XFILLER_6_27 VGND VGND VPWR VPWR sky130_fd_sc_hd__decap_4
XFILLER_10_80 VGND VGND VPWR VPWR sky130_fd_sc_hd__decap_12
XFILLER_19_110 VGND VGND VPWR VPWR sky130_fd_sc_hd__decap_12
XFILLER_25_135 VGND VGND VPWR VPWR sky130_fd_sc_hd__decap_12
XFILLER_40_105 VGND VGND VPWR VPWR sky130_fd_sc_hd__decap_12
XFILLER_25_179 VGND VGND VPWR VPWR sky130_fd_sc_hd__decap_4
Xmem_right_track_12.sky130_fd_sc_hd__dfxtp_1_1_ mux_right_track_12.mux_l1_in_0_/S
+ mux_right_track_12.mux_l2_in_0_/S clkbuf_2_0_0_prog_clk/X VGND VGND VPWR VPWR sky130_fd_sc_hd__dfxtp_1
Xmux_right_track_10.mux_l1_in_0_ chany_bottom_in[13] right_bottom_grid_pin_34_ mux_right_track_10.mux_l1_in_0_/S
+ mux_right_track_10.mux_l1_in_0_/X VGND VGND VPWR VPWR sky130_fd_sc_hd__mux2_1
XFILLER_0_234 VGND VGND VPWR VPWR sky130_fd_sc_hd__fill_2
Xmux_right_track_8.mux_l2_in_0_ mux_right_track_8.mux_l1_in_1_/X mux_right_track_8.mux_l1_in_0_/X
+ mux_right_track_8.mux_l2_in_0_/S mux_right_track_8.mux_l2_in_0_/X VGND VGND VPWR
+ VPWR sky130_fd_sc_hd__mux2_1
XPHY_130 VGND VPWR sky130_fd_sc_hd__tapvpwrvgnd_1
XPHY_141 VGND VPWR sky130_fd_sc_hd__tapvpwrvgnd_1
XPHY_152 VGND VPWR sky130_fd_sc_hd__tapvpwrvgnd_1
XFILLER_24_190 VGND VGND VPWR VPWR sky130_fd_sc_hd__decap_12
XPHY_163 VGND VPWR sky130_fd_sc_hd__tapvpwrvgnd_1
XPHY_174 VGND VPWR sky130_fd_sc_hd__tapvpwrvgnd_1
XPHY_185 VGND VPWR sky130_fd_sc_hd__tapvpwrvgnd_1
XPHY_196 VGND VPWR sky130_fd_sc_hd__tapvpwrvgnd_1
XANTENNA_mux_right_track_30.mux_l1_in_0__A0 chany_bottom_in[3] VGND VGND VPWR VPWR
+ sky130_fd_sc_hd__diode_2
Xmux_right_track_22.mux_l2_in_0_ _47_/HI mux_right_track_22.mux_l1_in_0_/X mux_right_track_22.mux_l2_in_0_/S
+ mux_right_track_22.mux_l2_in_0_/X VGND VGND VPWR VPWR sky130_fd_sc_hd__mux2_1
XFILLER_22_105 VGND VGND VPWR VPWR sky130_fd_sc_hd__decap_12
XFILLER_38_271 VGND VGND VPWR VPWR sky130_fd_sc_hd__decap_4
XFILLER_26_68 VGND VGND VPWR VPWR sky130_fd_sc_hd__decap_12
XFILLER_42_56 VGND VGND VPWR VPWR sky130_fd_sc_hd__decap_6
XFILLER_21_171 VGND VGND VPWR VPWR sky130_fd_sc_hd__decap_12
XFILLER_3_39 VGND VGND VPWR VPWR sky130_fd_sc_hd__decap_12
XFILLER_27_208 VGND VGND VPWR VPWR sky130_fd_sc_hd__decap_12
XFILLER_35_263 VGND VGND VPWR VPWR sky130_fd_sc_hd__fill_2
XFILLER_12_15 VGND VGND VPWR VPWR sky130_fd_sc_hd__decap_12
XANTENNA_mux_right_track_22.mux_l1_in_0__A1 right_bottom_grid_pin_40_ VGND VGND VPWR
+ VPWR sky130_fd_sc_hd__diode_2
XANTENNA_mem_right_track_14.sky130_fd_sc_hd__dfxtp_1_1__D mux_right_track_14.mux_l1_in_0_/S
+ VGND VGND VPWR VPWR sky130_fd_sc_hd__diode_2
Xmux_right_track_8.mux_l1_in_1_ _34_/HI chany_bottom_in[14] mux_right_track_8.mux_l1_in_0_/S
+ mux_right_track_8.mux_l1_in_1_/X VGND VGND VPWR VPWR sky130_fd_sc_hd__mux2_1
XANTENNA_mux_bottom_track_9.mux_l2_in_0__S mux_bottom_track_9.mux_l2_in_0_/S VGND
+ VGND VPWR VPWR sky130_fd_sc_hd__diode_2
XFILLER_18_208 VGND VGND VPWR VPWR sky130_fd_sc_hd__fill_2
XFILLER_26_263 VGND VGND VPWR VPWR sky130_fd_sc_hd__decap_12
XFILLER_5_112 VGND VGND VPWR VPWR sky130_fd_sc_hd__fill_2
XFILLER_5_123 VGND VGND VPWR VPWR sky130_fd_sc_hd__fill_2
X_61_ _61_/A chanx_right_out[9] VGND VGND VPWR VPWR sky130_fd_sc_hd__buf_2
XANTENNA_mem_right_track_8.sky130_fd_sc_hd__dfxtp_1_1__D mux_right_track_8.mux_l1_in_0_/S
+ VGND VGND VPWR VPWR sky130_fd_sc_hd__diode_2
XFILLER_4_93 VGND VGND VPWR VPWR sky130_fd_sc_hd__fill_2
XFILLER_23_266 VGND VGND VPWR VPWR sky130_fd_sc_hd__fill_2
XFILLER_2_104 VGND VGND VPWR VPWR sky130_fd_sc_hd__fill_2
Xmem_bottom_track_9.sky130_fd_sc_hd__dfxtp_1_0_ mux_bottom_track_5.mux_l2_in_0_/S
+ mux_bottom_track_9.mux_l1_in_0_/S clkbuf_2_3_0_prog_clk/X VGND VGND VPWR VPWR sky130_fd_sc_hd__dfxtp_1
XFILLER_9_27 VGND VGND VPWR VPWR sky130_fd_sc_hd__decap_12
XANTENNA_mux_right_track_2.mux_l1_in_0__S mux_right_track_2.mux_l1_in_1_/S VGND VGND
+ VPWR VPWR sky130_fd_sc_hd__diode_2
XFILLER_1_181 VGND VGND VPWR VPWR sky130_fd_sc_hd__fill_2
X_44_ _44_/HI _44_/LO VGND VGND VPWR VPWR sky130_fd_sc_hd__conb_1
XFILLER_20_247 VGND VGND VPWR VPWR sky130_fd_sc_hd__fill_2
XFILLER_34_68 VGND VGND VPWR VPWR sky130_fd_sc_hd__decap_12
XFILLER_11_236 VGND VGND VPWR VPWR sky130_fd_sc_hd__fill_2
XFILLER_11_258 VGND VGND VPWR VPWR sky130_fd_sc_hd__fill_2
XFILLER_1_3 VGND VGND VPWR VPWR sky130_fd_sc_hd__decap_12
XFILLER_34_3 VGND VGND VPWR VPWR sky130_fd_sc_hd__decap_12
Xmux_right_track_10.sky130_fd_sc_hd__buf_4_0_ mux_right_track_10.mux_l2_in_0_/X _65_/A
+ VGND VGND VPWR VPWR sky130_fd_sc_hd__buf_4
XFILLER_1_94 VGND VGND VPWR VPWR sky130_fd_sc_hd__fill_2
X_27_ _27_/HI _27_/LO VGND VGND VPWR VPWR sky130_fd_sc_hd__conb_1
XFILLER_20_15 VGND VGND VPWR VPWR sky130_fd_sc_hd__decap_12
XFILLER_28_166 VGND VGND VPWR VPWR sky130_fd_sc_hd__decap_12
XFILLER_3_232 VGND VGND VPWR VPWR sky130_fd_sc_hd__fill_2
XANTENNA_mux_right_track_14.sky130_fd_sc_hd__buf_4_0__A mux_right_track_14.mux_l2_in_0_/X
+ VGND VGND VPWR VPWR sky130_fd_sc_hd__diode_2
XANTENNA_mem_right_track_32.sky130_fd_sc_hd__dfxtp_1_0__D mux_right_track_30.mux_l2_in_0_/S
+ VGND VGND VPWR VPWR sky130_fd_sc_hd__diode_2
XFILLER_42_180 VGND VGND VPWR VPWR sky130_fd_sc_hd__decap_6
XFILLER_40_117 VGND VGND VPWR VPWR sky130_fd_sc_hd__decap_12
XFILLER_15_15 VGND VGND VPWR VPWR sky130_fd_sc_hd__decap_12
XFILLER_25_147 VGND VGND VPWR VPWR sky130_fd_sc_hd__decap_12
Xmem_right_track_12.sky130_fd_sc_hd__dfxtp_1_0_ mux_right_track_10.mux_l2_in_0_/S
+ mux_right_track_12.mux_l1_in_0_/S clkbuf_2_0_0_prog_clk/X VGND VGND VPWR VPWR sky130_fd_sc_hd__dfxtp_1
XANTENNA_mem_bottom_track_25.sky130_fd_sc_hd__dfxtp_1_1__CLK clkbuf_2_3_0_prog_clk/X
+ VGND VGND VPWR VPWR sky130_fd_sc_hd__diode_2
XFILLER_15_59 VGND VGND VPWR VPWR sky130_fd_sc_hd__fill_2
XFILLER_0_213 VGND VGND VPWR VPWR sky130_fd_sc_hd__fill_2
XPHY_120 VGND VPWR sky130_fd_sc_hd__tapvpwrvgnd_1
XPHY_131 VGND VPWR sky130_fd_sc_hd__tapvpwrvgnd_1
XPHY_142 VGND VPWR sky130_fd_sc_hd__tapvpwrvgnd_1
XPHY_153 VGND VPWR sky130_fd_sc_hd__tapvpwrvgnd_1
XFILLER_16_169 VGND VGND VPWR VPWR sky130_fd_sc_hd__fill_2
XPHY_164 VGND VPWR sky130_fd_sc_hd__tapvpwrvgnd_1
XPHY_175 VGND VPWR sky130_fd_sc_hd__tapvpwrvgnd_1
XPHY_186 VGND VPWR sky130_fd_sc_hd__tapvpwrvgnd_1
XPHY_197 VGND VPWR sky130_fd_sc_hd__tapvpwrvgnd_1
XANTENNA_mux_right_track_30.mux_l1_in_0__A1 right_bottom_grid_pin_36_ VGND VGND VPWR
+ VPWR sky130_fd_sc_hd__diode_2
XPHY_0 VGND VGND VPWR VPWR sky130_fd_sc_hd__decap_3
XANTENNA_mem_right_track_30.sky130_fd_sc_hd__dfxtp_1_0__CLK clkbuf_2_0_0_prog_clk/X
+ VGND VGND VPWR VPWR sky130_fd_sc_hd__diode_2
XFILLER_15_180 VGND VGND VPWR VPWR sky130_fd_sc_hd__decap_3
XFILLER_22_117 VGND VGND VPWR VPWR sky130_fd_sc_hd__decap_12
XFILLER_7_82 VGND VGND VPWR VPWR sky130_fd_sc_hd__decap_3
XFILLER_13_128 VGND VGND VPWR VPWR sky130_fd_sc_hd__fill_2
XANTENNA_mux_bottom_track_25.mux_l1_in_0__A0 bottom_left_grid_pin_1_ VGND VGND VPWR
+ VPWR sky130_fd_sc_hd__diode_2
XFILLER_8_154 VGND VGND VPWR VPWR sky130_fd_sc_hd__decap_3
XFILLER_12_161 VGND VGND VPWR VPWR sky130_fd_sc_hd__fill_2