* NGSPICE file created from sb_0__1_.ext - technology: EFS8A

* Black-box entry subcircuit for scs8hd_decap_8 abstract view
.subckt scs8hd_decap_8 vgnd vpwr
.ends

* Black-box entry subcircuit for scs8hd_buf_1 abstract view
.subckt scs8hd_buf_1 A X vgnd vpwr
.ends

* Black-box entry subcircuit for scs8hd_fill_2 abstract view
.subckt scs8hd_fill_2 vpwr vgnd
.ends

* Black-box entry subcircuit for scs8hd_fill_1 abstract view
.subckt scs8hd_fill_1 vgnd vpwr
.ends

* Black-box entry subcircuit for scs8hd_diode_2 abstract view
.subckt scs8hd_diode_2 DIODE vgnd vpwr
.ends

* Black-box entry subcircuit for scs8hd_mux2_1 abstract view
.subckt scs8hd_mux2_1 A0 A1 S X vgnd vpwr
.ends

* Black-box entry subcircuit for scs8hd_decap_12 abstract view
.subckt scs8hd_decap_12 vgnd vpwr
.ends

* Black-box entry subcircuit for scs8hd_decap_6 abstract view
.subckt scs8hd_decap_6 vgnd vpwr
.ends

* Black-box entry subcircuit for scs8hd_dfxbp_1 abstract view
.subckt scs8hd_dfxbp_1 CLK D Q QN vgnd vpwr
.ends

* Black-box entry subcircuit for scs8hd_buf_2 abstract view
.subckt scs8hd_buf_2 A X vgnd vpwr
.ends

* Black-box entry subcircuit for scs8hd_decap_3 abstract view
.subckt scs8hd_decap_3 vgnd vpwr
.ends

* Black-box entry subcircuit for scs8hd_conb_1 abstract view
.subckt scs8hd_conb_1 HI LO vgnd vpwr
.ends

* Black-box entry subcircuit for scs8hd_decap_4 abstract view
.subckt scs8hd_decap_4 vgnd vpwr
.ends

* Black-box entry subcircuit for scs8hd_tapvpwrvgnd_1 abstract view
.subckt scs8hd_tapvpwrvgnd_1 vgnd vpwr
.ends

.subckt sb_0__1_ bottom_left_grid_pin_1_ ccff_head ccff_tail chanx_right_in[0] chanx_right_in[10]
+ chanx_right_in[11] chanx_right_in[12] chanx_right_in[13] chanx_right_in[14] chanx_right_in[15]
+ chanx_right_in[16] chanx_right_in[17] chanx_right_in[18] chanx_right_in[19] chanx_right_in[1]
+ chanx_right_in[2] chanx_right_in[3] chanx_right_in[4] chanx_right_in[5] chanx_right_in[6]
+ chanx_right_in[7] chanx_right_in[8] chanx_right_in[9] chanx_right_out[0] chanx_right_out[10]
+ chanx_right_out[11] chanx_right_out[12] chanx_right_out[13] chanx_right_out[14]
+ chanx_right_out[15] chanx_right_out[16] chanx_right_out[17] chanx_right_out[18]
+ chanx_right_out[19] chanx_right_out[1] chanx_right_out[2] chanx_right_out[3] chanx_right_out[4]
+ chanx_right_out[5] chanx_right_out[6] chanx_right_out[7] chanx_right_out[8] chanx_right_out[9]
+ chany_bottom_in[0] chany_bottom_in[10] chany_bottom_in[11] chany_bottom_in[12] chany_bottom_in[13]
+ chany_bottom_in[14] chany_bottom_in[15] chany_bottom_in[16] chany_bottom_in[17]
+ chany_bottom_in[18] chany_bottom_in[19] chany_bottom_in[1] chany_bottom_in[2] chany_bottom_in[3]
+ chany_bottom_in[4] chany_bottom_in[5] chany_bottom_in[6] chany_bottom_in[7] chany_bottom_in[8]
+ chany_bottom_in[9] chany_bottom_out[0] chany_bottom_out[10] chany_bottom_out[11]
+ chany_bottom_out[12] chany_bottom_out[13] chany_bottom_out[14] chany_bottom_out[15]
+ chany_bottom_out[16] chany_bottom_out[17] chany_bottom_out[18] chany_bottom_out[19]
+ chany_bottom_out[1] chany_bottom_out[2] chany_bottom_out[3] chany_bottom_out[4]
+ chany_bottom_out[5] chany_bottom_out[6] chany_bottom_out[7] chany_bottom_out[8]
+ chany_bottom_out[9] chany_top_in[0] chany_top_in[10] chany_top_in[11] chany_top_in[12]
+ chany_top_in[13] chany_top_in[14] chany_top_in[15] chany_top_in[16] chany_top_in[17]
+ chany_top_in[18] chany_top_in[19] chany_top_in[1] chany_top_in[2] chany_top_in[3]
+ chany_top_in[4] chany_top_in[5] chany_top_in[6] chany_top_in[7] chany_top_in[8]
+ chany_top_in[9] chany_top_out[0] chany_top_out[10] chany_top_out[11] chany_top_out[12]
+ chany_top_out[13] chany_top_out[14] chany_top_out[15] chany_top_out[16] chany_top_out[17]
+ chany_top_out[18] chany_top_out[19] chany_top_out[1] chany_top_out[2] chany_top_out[3]
+ chany_top_out[4] chany_top_out[5] chany_top_out[6] chany_top_out[7] chany_top_out[8]
+ chany_top_out[9] prog_clk right_top_grid_pin_42_ right_top_grid_pin_43_ right_top_grid_pin_44_
+ right_top_grid_pin_45_ right_top_grid_pin_46_ right_top_grid_pin_47_ right_top_grid_pin_48_
+ right_top_grid_pin_49_ top_left_grid_pin_1_ vpwr vgnd
XFILLER_22_133 vgnd vpwr scs8hd_decap_8
Xmux_bottom_track_25.scs8hd_buf_4_0_ mux_bottom_track_25.mux_l3_in_0_/X _083_/A vgnd
+ vpwr scs8hd_buf_1
XFILLER_9_115 vpwr vgnd scs8hd_fill_2
XFILLER_9_148 vpwr vgnd scs8hd_fill_2
XFILLER_13_144 vgnd vpwr scs8hd_fill_1
XFILLER_13_166 vpwr vgnd scs8hd_fill_2
XANTENNA_mux_right_track_18.mux_l1_in_0__S mux_right_track_18.mux_l1_in_1_/S vgnd
+ vpwr scs8hd_diode_2
Xmux_bottom_track_3.mux_l1_in_1_ chanx_right_in[11] chanx_right_in[4] mux_bottom_track_3.mux_l1_in_1_/S
+ mux_bottom_track_3.mux_l1_in_1_/X vgnd vpwr scs8hd_mux2_1
XFILLER_36_258 vgnd vpwr scs8hd_decap_12
XANTENNA_mux_right_track_2.mux_l3_in_0__A0 mux_right_track_2.mux_l2_in_1_/X vgnd vpwr
+ scs8hd_diode_2
XFILLER_8_181 vgnd vpwr scs8hd_decap_6
XFILLER_27_214 vgnd vpwr scs8hd_fill_1
XFILLER_12_32 vgnd vpwr scs8hd_decap_12
XFILLER_37_62 vgnd vpwr scs8hd_decap_12
XFILLER_37_51 vgnd vpwr scs8hd_decap_8
XFILLER_18_236 vgnd vpwr scs8hd_decap_8
XFILLER_18_247 vpwr vgnd scs8hd_fill_2
XFILLER_5_184 vpwr vgnd scs8hd_fill_2
XANTENNA_mux_right_track_4.mux_l1_in_0__A1 chany_top_in[1] vgnd vpwr scs8hd_diode_2
Xmem_right_track_18.scs8hd_dfxbp_1_0_ prog_clk mux_right_track_16.mux_l2_in_0_/S mux_right_track_18.mux_l1_in_1_/S
+ mem_right_track_18.scs8hd_dfxbp_1_0_/QN vgnd vpwr scs8hd_dfxbp_1
XANTENNA_mux_top_track_0.mux_l1_in_0__A0 chanx_right_in[1] vgnd vpwr scs8hd_diode_2
XFILLER_15_217 vpwr vgnd scs8hd_fill_2
X_062_ _062_/A chanx_right_out[13] vgnd vpwr scs8hd_buf_2
XFILLER_23_86 vgnd vpwr scs8hd_decap_12
XFILLER_2_165 vgnd vpwr scs8hd_fill_1
XFILLER_2_132 vgnd vpwr scs8hd_fill_1
XANTENNA_mux_bottom_track_1.mux_l3_in_0__S mux_bottom_track_1.mux_l3_in_0_/S vgnd
+ vpwr scs8hd_diode_2
XFILLER_20_231 vgnd vpwr scs8hd_decap_3
XANTENNA_mem_bottom_track_5.scs8hd_dfxbp_1_2__D mux_bottom_track_5.mux_l2_in_0_/S
+ vgnd vpwr scs8hd_diode_2
XANTENNA_mux_right_track_2.mux_l1_in_2__A1 right_top_grid_pin_47_ vgnd vpwr scs8hd_diode_2
X_114_ _114_/A chany_top_out[1] vgnd vpwr scs8hd_buf_2
X_045_ _045_/HI _045_/LO vgnd vpwr scs8hd_conb_1
XFILLER_38_128 vpwr vgnd scs8hd_fill_2
XANTENNA_mux_bottom_track_25.mux_l3_in_0__S mux_bottom_track_25.mux_l3_in_0_/S vgnd
+ vpwr scs8hd_diode_2
Xmux_bottom_track_17.mux_l1_in_0_ chany_top_in[17] chany_top_in[8] mux_bottom_track_17.mux_l1_in_0_/S
+ mux_bottom_track_17.mux_l1_in_0_/X vgnd vpwr scs8hd_mux2_1
XFILLER_4_238 vpwr vgnd scs8hd_fill_2
XFILLER_20_32 vgnd vpwr scs8hd_decap_12
XFILLER_29_74 vgnd vpwr scs8hd_decap_12
X_028_ _028_/HI _028_/LO vgnd vpwr scs8hd_conb_1
XFILLER_6_56 vgnd vpwr scs8hd_decap_12
XANTENNA_mux_right_track_0.mux_l1_in_1__S mux_right_track_0.mux_l1_in_2_/S vgnd vpwr
+ scs8hd_diode_2
XFILLER_13_3 vgnd vpwr scs8hd_decap_12
XFILLER_19_161 vpwr vgnd scs8hd_fill_2
XFILLER_19_172 vpwr vgnd scs8hd_fill_2
XANTENNA_mux_right_track_2.mux_l2_in_1__A1 mux_right_track_2.mux_l1_in_2_/X vgnd vpwr
+ scs8hd_diode_2
Xmux_bottom_track_33.scs8hd_buf_4_0_ mux_bottom_track_33.mux_l2_in_0_/X _079_/A vgnd
+ vpwr scs8hd_buf_1
XFILLER_25_175 vpwr vgnd scs8hd_fill_2
XFILLER_15_98 vgnd vpwr scs8hd_decap_6
XFILLER_31_86 vgnd vpwr scs8hd_decap_3
XFILLER_0_263 vgnd vpwr scs8hd_decap_12
XANTENNA_mux_bottom_track_3.mux_l1_in_1__A0 chanx_right_in[11] vgnd vpwr scs8hd_diode_2
XFILLER_31_112 vgnd vpwr scs8hd_decap_4
XANTENNA_mux_top_track_0.mux_l2_in_1__S mux_top_track_0.mux_l2_in_0_/S vgnd vpwr scs8hd_diode_2
XPHY_170 vgnd vpwr scs8hd_tapvpwrvgnd_1
XPHY_181 vgnd vpwr scs8hd_tapvpwrvgnd_1
XPHY_192 vgnd vpwr scs8hd_tapvpwrvgnd_1
XFILLER_39_245 vpwr vgnd scs8hd_fill_2
XFILLER_22_145 vgnd vpwr scs8hd_decap_6
Xmem_right_track_2.scs8hd_dfxbp_1_2_ prog_clk mux_right_track_2.mux_l2_in_1_/S mux_right_track_2.mux_l3_in_0_/S
+ mem_right_track_2.scs8hd_dfxbp_1_2_/QN vgnd vpwr scs8hd_dfxbp_1
XFILLER_42_63 vgnd vpwr scs8hd_decap_12
XFILLER_9_127 vpwr vgnd scs8hd_fill_2
Xmux_bottom_track_3.mux_l1_in_0_ chany_top_in[13] chany_top_in[4] mux_bottom_track_3.mux_l1_in_1_/S
+ mux_bottom_track_3.mux_l1_in_0_/X vgnd vpwr scs8hd_mux2_1
XFILLER_36_215 vgnd vpwr scs8hd_fill_1
XANTENNA_mux_right_track_2.mux_l3_in_0__A1 mux_right_track_2.mux_l2_in_0_/X vgnd vpwr
+ scs8hd_diode_2
XANTENNA_mem_top_track_8.scs8hd_dfxbp_1_2__D mux_top_track_8.mux_l2_in_1_/S vgnd vpwr
+ scs8hd_diode_2
XFILLER_42_218 vgnd vpwr scs8hd_decap_8
XANTENNA_mux_bottom_track_3.mux_l2_in_0__A0 mux_bottom_track_3.mux_l1_in_1_/X vgnd
+ vpwr scs8hd_diode_2
XFILLER_10_126 vpwr vgnd scs8hd_fill_2
XFILLER_12_44 vgnd vpwr scs8hd_decap_12
XANTENNA_mux_right_track_10.mux_l2_in_0__A0 right_top_grid_pin_43_ vgnd vpwr scs8hd_diode_2
XANTENNA_mem_top_track_4.scs8hd_dfxbp_1_0__CLK prog_clk vgnd vpwr scs8hd_diode_2
XFILLER_37_74 vgnd vpwr scs8hd_decap_12
XFILLER_33_207 vpwr vgnd scs8hd_fill_2
XFILLER_18_215 vpwr vgnd scs8hd_fill_2
XFILLER_18_259 vgnd vpwr scs8hd_decap_12
XFILLER_17_270 vgnd vpwr scs8hd_decap_6
XFILLER_24_218 vpwr vgnd scs8hd_fill_2
XANTENNA_mux_top_track_0.mux_l1_in_0__A1 top_left_grid_pin_1_ vgnd vpwr scs8hd_diode_2
XFILLER_23_240 vgnd vpwr scs8hd_decap_4
XANTENNA_mem_right_track_18.scs8hd_dfxbp_1_1__D mux_right_track_18.mux_l1_in_1_/S
+ vgnd vpwr scs8hd_diode_2
X_061_ chany_bottom_in[11] chanx_right_out[14] vgnd vpwr scs8hd_buf_2
XFILLER_23_98 vgnd vpwr scs8hd_decap_12
XFILLER_14_262 vpwr vgnd scs8hd_fill_2
XFILLER_20_243 vpwr vgnd scs8hd_fill_2
XFILLER_20_276 vgnd vpwr scs8hd_fill_1
XANTENNA_mem_right_track_22.scs8hd_dfxbp_1_1__CLK prog_clk vgnd vpwr scs8hd_diode_2
XFILLER_18_32 vgnd vpwr scs8hd_decap_12
X_113_ _113_/A chany_top_out[2] vgnd vpwr scs8hd_buf_2
XFILLER_7_236 vpwr vgnd scs8hd_fill_2
X_044_ _044_/HI _044_/LO vgnd vpwr scs8hd_conb_1
XANTENNA_mux_top_track_24.mux_l1_in_0__S mux_top_track_24.mux_l1_in_0_/S vgnd vpwr
+ scs8hd_diode_2
Xmem_bottom_track_3.scs8hd_dfxbp_1_2_ prog_clk mux_bottom_track_3.mux_l2_in_0_/S mux_bottom_track_3.mux_l3_in_0_/S
+ mem_bottom_track_3.scs8hd_dfxbp_1_2_/QN vgnd vpwr scs8hd_dfxbp_1
XFILLER_29_118 vgnd vpwr scs8hd_decap_4
XANTENNA_mem_top_track_32.scs8hd_dfxbp_1_0__D mux_top_track_24.mux_l3_in_0_/S vgnd
+ vpwr scs8hd_diode_2
XANTENNA_mux_right_track_8.mux_l3_in_0__S mux_right_track_8.mux_l3_in_0_/S vgnd vpwr
+ scs8hd_diode_2
XFILLER_20_44 vgnd vpwr scs8hd_decap_12
XFILLER_29_97 vpwr vgnd scs8hd_fill_2
XFILLER_29_86 vgnd vpwr scs8hd_decap_8
XFILLER_6_68 vgnd vpwr scs8hd_decap_12
XFILLER_34_132 vpwr vgnd scs8hd_fill_2
XFILLER_34_143 vgnd vpwr scs8hd_decap_4
XFILLER_1_209 vpwr vgnd scs8hd_fill_2
XANTENNA_mem_bottom_track_25.scs8hd_dfxbp_1_2__D mux_bottom_track_25.mux_l2_in_1_/S
+ vgnd vpwr scs8hd_diode_2
XFILLER_25_143 vpwr vgnd scs8hd_fill_2
XFILLER_15_22 vgnd vpwr scs8hd_decap_12
XANTENNA_mem_bottom_track_9.scs8hd_dfxbp_1_0__D mux_bottom_track_5.mux_l3_in_0_/S
+ vgnd vpwr scs8hd_diode_2
XFILLER_0_275 vpwr vgnd scs8hd_fill_2
XANTENNA_mux_bottom_track_3.mux_l1_in_1__A1 chanx_right_in[4] vgnd vpwr scs8hd_diode_2
XFILLER_16_132 vpwr vgnd scs8hd_fill_2
XFILLER_31_179 vpwr vgnd scs8hd_fill_2
XPHY_160 vgnd vpwr scs8hd_tapvpwrvgnd_1
XPHY_171 vgnd vpwr scs8hd_tapvpwrvgnd_1
XPHY_182 vgnd vpwr scs8hd_tapvpwrvgnd_1
XPHY_193 vgnd vpwr scs8hd_tapvpwrvgnd_1
XANTENNA_mem_right_track_6.scs8hd_dfxbp_1_1__CLK prog_clk vgnd vpwr scs8hd_diode_2
XFILLER_39_224 vpwr vgnd scs8hd_fill_2
XFILLER_39_213 vpwr vgnd scs8hd_fill_2
XANTENNA_mem_top_track_16.scs8hd_dfxbp_1_0__CLK prog_clk vgnd vpwr scs8hd_diode_2
XANTENNA_mux_right_track_6.mux_l1_in_1__A0 right_top_grid_pin_45_ vgnd vpwr scs8hd_diode_2
Xmem_right_track_2.scs8hd_dfxbp_1_1_ prog_clk mux_right_track_2.mux_l1_in_1_/S mux_right_track_2.mux_l2_in_1_/S
+ mem_right_track_2.scs8hd_dfxbp_1_1_/QN vgnd vpwr scs8hd_dfxbp_1
XFILLER_26_32 vgnd vpwr scs8hd_decap_12
XFILLER_13_179 vpwr vgnd scs8hd_fill_2
XANTENNA_mux_right_track_12.scs8hd_buf_4_0__A mux_right_track_12.mux_l3_in_0_/X vgnd
+ vpwr scs8hd_diode_2
XFILLER_42_75 vgnd vpwr scs8hd_decap_12
XFILLER_8_150 vgnd vpwr scs8hd_fill_1
XFILLER_12_190 vpwr vgnd scs8hd_fill_2
XANTENNA_mux_right_track_20.mux_l2_in_0__S mux_right_track_20.mux_l2_in_0_/S vgnd
+ vpwr scs8hd_diode_2
XFILLER_27_227 vpwr vgnd scs8hd_fill_2
XFILLER_10_105 vgnd vpwr scs8hd_decap_12
XFILLER_10_149 vgnd vpwr scs8hd_fill_1
XANTENNA_mux_bottom_track_3.mux_l2_in_0__A1 mux_bottom_track_3.mux_l1_in_0_/X vgnd
+ vpwr scs8hd_diode_2
XFILLER_12_56 vgnd vpwr scs8hd_decap_12
XANTENNA_mux_right_track_4.mux_l1_in_3__A0 _033_/HI vgnd vpwr scs8hd_diode_2
XANTENNA_mux_right_track_10.mux_l2_in_0__A1 mux_right_track_10.mux_l1_in_0_/X vgnd
+ vpwr scs8hd_diode_2
XFILLER_37_86 vgnd vpwr scs8hd_decap_12
XFILLER_5_175 vpwr vgnd scs8hd_fill_2
XFILLER_5_164 vgnd vpwr scs8hd_decap_4
XFILLER_5_197 vpwr vgnd scs8hd_fill_2
XANTENNA_mux_right_track_6.mux_l2_in_0__A0 mux_right_track_6.mux_l1_in_1_/X vgnd vpwr
+ scs8hd_diode_2
XANTENNA_mux_right_track_14.mux_l1_in_0__S mux_right_track_14.mux_l1_in_0_/S vgnd
+ vpwr scs8hd_diode_2
Xmux_right_track_10.mux_l3_in_0_ mux_right_track_10.mux_l2_in_1_/X mux_right_track_10.mux_l2_in_0_/X
+ mux_right_track_10.mux_l3_in_0_/S mux_right_track_10.mux_l3_in_0_/X vgnd vpwr scs8hd_mux2_1
XFILLER_23_263 vgnd vpwr scs8hd_decap_12
XFILLER_3_3 vgnd vpwr scs8hd_decap_12
XFILLER_2_145 vpwr vgnd scs8hd_fill_2
X_060_ chany_bottom_in[7] chanx_right_out[15] vgnd vpwr scs8hd_buf_2
XFILLER_0_15 vgnd vpwr scs8hd_decap_3
XFILLER_0_26 vgnd vpwr scs8hd_decap_4
XANTENNA_mux_top_track_16.mux_l2_in_0__S mux_top_track_16.mux_l2_in_1_/S vgnd vpwr
+ scs8hd_diode_2
XFILLER_14_274 vgnd vpwr scs8hd_fill_1
XFILLER_36_3 vgnd vpwr scs8hd_decap_12
XANTENNA__061__A chany_bottom_in[11] vgnd vpwr scs8hd_diode_2
XFILLER_18_44 vgnd vpwr scs8hd_decap_12
XFILLER_34_32 vgnd vpwr scs8hd_decap_12
X_112_ chany_bottom_in[2] chany_top_out[3] vgnd vpwr scs8hd_buf_2
X_043_ _043_/HI _043_/LO vgnd vpwr scs8hd_conb_1
Xmux_right_track_10.mux_l2_in_1_ _051_/HI chany_bottom_in[9] mux_right_track_10.mux_l2_in_0_/S
+ mux_right_track_10.mux_l2_in_1_/X vgnd vpwr scs8hd_mux2_1
Xmem_bottom_track_3.scs8hd_dfxbp_1_1_ prog_clk mux_bottom_track_3.mux_l1_in_1_/S mux_bottom_track_3.mux_l2_in_0_/S
+ mem_bottom_track_3.scs8hd_dfxbp_1_1_/QN vgnd vpwr scs8hd_dfxbp_1
XFILLER_37_163 vpwr vgnd scs8hd_fill_2
XFILLER_1_91 vpwr vgnd scs8hd_fill_2
XFILLER_4_207 vgnd vpwr scs8hd_decap_4
XFILLER_20_56 vgnd vpwr scs8hd_decap_12
XFILLER_28_163 vpwr vgnd scs8hd_fill_2
XANTENNA_mux_bottom_track_3.mux_l2_in_1__S mux_bottom_track_3.mux_l2_in_0_/S vgnd
+ vpwr scs8hd_diode_2
Xmem_right_track_26.scs8hd_dfxbp_1_1_ prog_clk mux_right_track_26.mux_l1_in_0_/S mux_right_track_26.mux_l2_in_0_/S
+ mem_right_track_26.scs8hd_dfxbp_1_1_/QN vgnd vpwr scs8hd_dfxbp_1
XFILLER_34_188 vgnd vpwr scs8hd_fill_1
XANTENNA_mem_right_track_0.scs8hd_dfxbp_1_2__D mux_right_track_0.mux_l2_in_1_/S vgnd
+ vpwr scs8hd_diode_2
XFILLER_40_158 vpwr vgnd scs8hd_fill_2
XFILLER_25_199 vpwr vgnd scs8hd_fill_2
XANTENNA_mux_bottom_track_9.mux_l1_in_2__S mux_bottom_track_9.mux_l1_in_1_/S vgnd
+ vpwr scs8hd_diode_2
XFILLER_15_34 vgnd vpwr scs8hd_decap_12
XFILLER_40_169 vgnd vpwr scs8hd_decap_6
XFILLER_0_232 vpwr vgnd scs8hd_fill_2
XFILLER_31_169 vgnd vpwr scs8hd_decap_3
XPHY_150 vgnd vpwr scs8hd_tapvpwrvgnd_1
XPHY_161 vgnd vpwr scs8hd_tapvpwrvgnd_1
XPHY_172 vgnd vpwr scs8hd_tapvpwrvgnd_1
XPHY_183 vgnd vpwr scs8hd_tapvpwrvgnd_1
XPHY_194 vgnd vpwr scs8hd_tapvpwrvgnd_1
XANTENNA_mem_bottom_track_17.scs8hd_dfxbp_1_2__CLK prog_clk vgnd vpwr scs8hd_diode_2
XFILLER_39_236 vpwr vgnd scs8hd_fill_2
XANTENNA_mux_right_track_12.mux_l3_in_0__S mux_right_track_12.mux_l3_in_0_/S vgnd
+ vpwr scs8hd_diode_2
XFILLER_22_158 vgnd vpwr scs8hd_fill_1
XANTENNA_mux_right_track_6.mux_l1_in_1__A1 right_top_grid_pin_43_ vgnd vpwr scs8hd_diode_2
XANTENNA_mux_top_track_2.mux_l1_in_1__A0 chany_bottom_in[4] vgnd vpwr scs8hd_diode_2
Xmem_right_track_2.scs8hd_dfxbp_1_0_ prog_clk mux_right_track_0.mux_l3_in_0_/S mux_right_track_2.mux_l1_in_1_/S
+ mem_right_track_2.scs8hd_dfxbp_1_0_/QN vgnd vpwr scs8hd_dfxbp_1
XFILLER_26_44 vgnd vpwr scs8hd_decap_12
XFILLER_42_87 vgnd vpwr scs8hd_decap_6
XFILLER_42_32 vgnd vpwr scs8hd_decap_12
XFILLER_13_114 vpwr vgnd scs8hd_fill_2
XFILLER_13_136 vpwr vgnd scs8hd_fill_2
XFILLER_21_180 vgnd vpwr scs8hd_fill_1
XFILLER_36_206 vgnd vpwr scs8hd_fill_1
XFILLER_3_59 vpwr vgnd scs8hd_fill_2
XFILLER_3_15 vgnd vpwr scs8hd_decap_12
XFILLER_8_140 vpwr vgnd scs8hd_fill_2
Xmux_bottom_track_5.scs8hd_buf_4_0_ mux_bottom_track_5.mux_l3_in_0_/X _093_/A vgnd
+ vpwr scs8hd_buf_1
XFILLER_27_239 vgnd vpwr scs8hd_decap_3
XFILLER_27_217 vgnd vpwr scs8hd_fill_1
Xmux_right_track_12.scs8hd_buf_4_0_ mux_right_track_12.mux_l3_in_0_/X _069_/A vgnd
+ vpwr scs8hd_buf_1
XANTENNA_mux_right_track_4.mux_l1_in_3__A1 chany_bottom_in[5] vgnd vpwr scs8hd_diode_2
XANTENNA__064__A _064_/A vgnd vpwr scs8hd_diode_2
XFILLER_12_68 vgnd vpwr scs8hd_decap_12
XFILLER_18_206 vpwr vgnd scs8hd_fill_2
XFILLER_37_98 vgnd vpwr scs8hd_decap_6
XFILLER_26_272 vgnd vpwr scs8hd_decap_3
XANTENNA_mux_right_track_6.mux_l1_in_0__S mux_right_track_6.mux_l1_in_0_/S vgnd vpwr
+ scs8hd_diode_2
XFILLER_5_121 vgnd vpwr scs8hd_fill_1
XANTENNA_mux_right_track_6.mux_l2_in_0__A1 mux_right_track_6.mux_l1_in_0_/X vgnd vpwr
+ scs8hd_diode_2
XFILLER_24_209 vgnd vpwr scs8hd_decap_4
XANTENNA_mux_top_track_2.mux_l2_in_0__A0 mux_top_track_2.mux_l1_in_1_/X vgnd vpwr
+ scs8hd_diode_2
XFILLER_4_80 vgnd vpwr scs8hd_decap_12
XANTENNA__059__A chany_bottom_in[3] vgnd vpwr scs8hd_diode_2
XFILLER_23_275 vpwr vgnd scs8hd_fill_2
XANTENNA_mux_right_track_14.mux_l1_in_0__A0 chany_top_in[19] vgnd vpwr scs8hd_diode_2
XFILLER_2_135 vgnd vpwr scs8hd_fill_1
XFILLER_29_3 vgnd vpwr scs8hd_decap_12
XANTENNA_mem_right_track_2.scs8hd_dfxbp_1_1__D mux_right_track_2.mux_l1_in_1_/S vgnd
+ vpwr scs8hd_diode_2
XFILLER_18_56 vgnd vpwr scs8hd_decap_12
XFILLER_34_44 vgnd vpwr scs8hd_decap_12
XANTENNA_mem_right_track_16.scs8hd_dfxbp_1_0__CLK prog_clk vgnd vpwr scs8hd_diode_2
XFILLER_11_201 vgnd vpwr scs8hd_fill_1
XFILLER_11_223 vpwr vgnd scs8hd_fill_2
X_111_ _111_/A chany_top_out[4] vgnd vpwr scs8hd_buf_2
XANTENNA_mux_bottom_track_5.mux_l1_in_2__A0 bottom_left_grid_pin_1_ vgnd vpwr scs8hd_diode_2
XFILLER_11_234 vpwr vgnd scs8hd_fill_2
XFILLER_11_245 vgnd vpwr scs8hd_decap_3
X_042_ _042_/HI _042_/LO vgnd vpwr scs8hd_conb_1
Xmux_right_track_10.mux_l2_in_0_ right_top_grid_pin_43_ mux_right_track_10.mux_l1_in_0_/X
+ mux_right_track_10.mux_l2_in_0_/S mux_right_track_10.mux_l2_in_0_/X vgnd vpwr scs8hd_mux2_1
XANTENNA_mem_top_track_16.scs8hd_dfxbp_1_1__D mux_top_track_16.mux_l1_in_1_/S vgnd
+ vpwr scs8hd_diode_2
Xmux_right_track_8.mux_l3_in_0_ mux_right_track_8.mux_l2_in_1_/X mux_right_track_8.mux_l2_in_0_/X
+ mux_right_track_8.mux_l3_in_0_/S mux_right_track_8.mux_l3_in_0_/X vgnd vpwr scs8hd_mux2_1
Xmem_bottom_track_3.scs8hd_dfxbp_1_0_ prog_clk mux_bottom_track_1.mux_l3_in_0_/S mux_bottom_track_3.mux_l1_in_1_/S
+ mem_bottom_track_3.scs8hd_dfxbp_1_0_/QN vgnd vpwr scs8hd_dfxbp_1
XFILLER_37_142 vpwr vgnd scs8hd_fill_2
XFILLER_37_197 vpwr vgnd scs8hd_fill_2
XFILLER_37_175 vpwr vgnd scs8hd_fill_2
Xmux_top_track_0.mux_l3_in_0_ mux_top_track_0.mux_l2_in_1_/X mux_top_track_0.mux_l2_in_0_/X
+ mux_top_track_0.mux_l3_in_0_/S mux_top_track_0.mux_l3_in_0_/X vgnd vpwr scs8hd_mux2_1
XANTENNA__072__A _072_/A vgnd vpwr scs8hd_diode_2
XFILLER_20_68 vgnd vpwr scs8hd_decap_12
XFILLER_28_197 vgnd vpwr scs8hd_decap_6
XFILLER_3_241 vgnd vpwr scs8hd_fill_1
XFILLER_6_15 vgnd vpwr scs8hd_decap_12
Xmem_right_track_26.scs8hd_dfxbp_1_0_ prog_clk mux_right_track_24.mux_l3_in_0_/S mux_right_track_26.mux_l1_in_0_/S
+ mem_right_track_26.scs8hd_dfxbp_1_0_/QN vgnd vpwr scs8hd_dfxbp_1
XFILLER_34_167 vgnd vpwr scs8hd_fill_1
XANTENNA_mem_right_track_20.scs8hd_dfxbp_1_1__D mux_right_track_20.mux_l1_in_0_/S
+ vgnd vpwr scs8hd_diode_2
XANTENNA_mux_bottom_track_5.mux_l2_in_1__A0 _048_/HI vgnd vpwr scs8hd_diode_2
XFILLER_40_126 vpwr vgnd scs8hd_fill_2
XANTENNA__067__A _067_/A vgnd vpwr scs8hd_diode_2
XFILLER_25_156 vpwr vgnd scs8hd_fill_2
XFILLER_15_46 vgnd vpwr scs8hd_decap_12
XANTENNA_mux_right_track_12.mux_l2_in_1__A0 _052_/HI vgnd vpwr scs8hd_diode_2
XFILLER_0_244 vpwr vgnd scs8hd_fill_2
XFILLER_0_222 vpwr vgnd scs8hd_fill_2
XANTENNA_mux_right_track_6.mux_l1_in_3__S mux_right_track_6.mux_l1_in_0_/S vgnd vpwr
+ scs8hd_diode_2
Xmux_right_track_8.mux_l2_in_1_ _035_/HI chany_bottom_in[8] mux_right_track_8.mux_l2_in_0_/S
+ mux_right_track_8.mux_l2_in_1_/X vgnd vpwr scs8hd_mux2_1
XFILLER_16_145 vpwr vgnd scs8hd_fill_2
XFILLER_16_167 vpwr vgnd scs8hd_fill_2
XANTENNA_mux_right_track_4.mux_l3_in_0__S mux_right_track_4.mux_l3_in_0_/S vgnd vpwr
+ scs8hd_diode_2
XPHY_140 vgnd vpwr scs8hd_tapvpwrvgnd_1
XPHY_151 vgnd vpwr scs8hd_tapvpwrvgnd_1
XPHY_162 vgnd vpwr scs8hd_tapvpwrvgnd_1
XPHY_173 vgnd vpwr scs8hd_tapvpwrvgnd_1
XPHY_184 vgnd vpwr scs8hd_tapvpwrvgnd_1
XPHY_195 vgnd vpwr scs8hd_tapvpwrvgnd_1
Xmux_right_track_20.scs8hd_buf_4_0_ mux_right_track_20.mux_l2_in_0_/X _065_/A vgnd
+ vpwr scs8hd_buf_1
Xmux_top_track_0.mux_l2_in_1_ _036_/HI mux_top_track_0.mux_l1_in_2_/X mux_top_track_0.mux_l2_in_0_/S
+ mux_top_track_0.mux_l2_in_1_/X vgnd vpwr scs8hd_mux2_1
XFILLER_39_259 vpwr vgnd scs8hd_fill_2
XANTENNA_mem_top_track_2.scs8hd_dfxbp_1_1__CLK prog_clk vgnd vpwr scs8hd_diode_2
XFILLER_11_3 vgnd vpwr scs8hd_decap_12
XFILLER_30_192 vpwr vgnd scs8hd_fill_2
XFILLER_30_170 vgnd vpwr scs8hd_fill_1
XANTENNA_mux_top_track_2.mux_l1_in_1__A1 chanx_right_in[16] vgnd vpwr scs8hd_diode_2
XFILLER_38_270 vgnd vpwr scs8hd_decap_4
XFILLER_26_56 vgnd vpwr scs8hd_decap_12
XFILLER_42_44 vgnd vpwr scs8hd_decap_12
XFILLER_9_119 vgnd vpwr scs8hd_decap_3
XFILLER_3_27 vgnd vpwr scs8hd_decap_12
XFILLER_29_270 vgnd vpwr scs8hd_decap_6
XANTENNA_mux_bottom_track_5.mux_l3_in_0__A0 mux_bottom_track_5.mux_l2_in_1_/X vgnd
+ vpwr scs8hd_diode_2
XANTENNA_mux_right_track_12.mux_l3_in_0__A0 mux_right_track_12.mux_l2_in_1_/X vgnd
+ vpwr scs8hd_diode_2
XANTENNA_mem_right_track_4.scs8hd_dfxbp_1_0__D mux_right_track_2.mux_l3_in_0_/S vgnd
+ vpwr scs8hd_diode_2
XANTENNA_mux_right_track_22.mux_l1_in_0__A0 right_top_grid_pin_49_ vgnd vpwr scs8hd_diode_2
XANTENNA__080__A chany_top_in[14] vgnd vpwr scs8hd_diode_2
XFILLER_41_243 vgnd vpwr scs8hd_fill_1
XFILLER_41_221 vpwr vgnd scs8hd_fill_2
Xmux_top_track_0.mux_l1_in_2_ chany_bottom_in[12] chany_bottom_in[2] mux_top_track_0.mux_l1_in_0_/S
+ mux_top_track_0.mux_l1_in_2_/X vgnd vpwr scs8hd_mux2_1
XFILLER_5_133 vpwr vgnd scs8hd_fill_2
Xmux_top_track_2.scs8hd_buf_4_0_ mux_top_track_2.mux_l3_in_0_/X _114_/A vgnd vpwr
+ scs8hd_buf_1
XANTENNA_mux_top_track_2.mux_l2_in_0__A1 mux_top_track_2.mux_l1_in_0_/X vgnd vpwr
+ scs8hd_diode_2
XFILLER_17_240 vpwr vgnd scs8hd_fill_2
XFILLER_32_276 vgnd vpwr scs8hd_fill_1
XFILLER_23_232 vgnd vpwr scs8hd_fill_1
XANTENNA__075__A _075_/A vgnd vpwr scs8hd_diode_2
XANTENNA_mux_right_track_14.mux_l1_in_0__A1 chany_top_in[12] vgnd vpwr scs8hd_diode_2
XFILLER_2_158 vgnd vpwr scs8hd_decap_4
XFILLER_9_15 vgnd vpwr scs8hd_decap_12
XFILLER_9_59 vpwr vgnd scs8hd_fill_2
XFILLER_14_276 vgnd vpwr scs8hd_fill_1
XANTENNA_mux_right_track_22.mux_l1_in_1__S mux_right_track_22.mux_l1_in_0_/S vgnd
+ vpwr scs8hd_diode_2
XANTENNA_mem_right_track_22.scs8hd_dfxbp_1_0__D mux_right_track_20.mux_l2_in_0_/S
+ vgnd vpwr scs8hd_diode_2
XFILLER_20_224 vgnd vpwr scs8hd_decap_4
XANTENNA_mux_right_track_10.mux_l1_in_0__S mux_right_track_10.mux_l1_in_0_/S vgnd
+ vpwr scs8hd_diode_2
XFILLER_18_68 vgnd vpwr scs8hd_decap_12
X_110_ chany_bottom_in[4] chany_top_out[5] vgnd vpwr scs8hd_buf_2
XFILLER_34_56 vgnd vpwr scs8hd_decap_12
XANTENNA_mem_bottom_track_33.scs8hd_dfxbp_1_1__CLK prog_clk vgnd vpwr scs8hd_diode_2
XANTENNA_mux_bottom_track_5.mux_l1_in_2__A1 chanx_right_in[17] vgnd vpwr scs8hd_diode_2
X_041_ _041_/HI _041_/LO vgnd vpwr scs8hd_conb_1
XANTENNA_mux_top_track_24.mux_l2_in_1__S mux_top_track_24.mux_l2_in_1_/S vgnd vpwr
+ scs8hd_diode_2
XFILLER_41_3 vgnd vpwr scs8hd_decap_12
XANTENNA_mem_right_track_4.scs8hd_dfxbp_1_2__CLK prog_clk vgnd vpwr scs8hd_diode_2
XFILLER_28_132 vgnd vpwr scs8hd_fill_1
XANTENNA_mem_right_track_2.scs8hd_dfxbp_1_0__CLK prog_clk vgnd vpwr scs8hd_diode_2
XFILLER_3_264 vgnd vpwr scs8hd_decap_12
XFILLER_3_220 vpwr vgnd scs8hd_fill_2
XFILLER_6_27 vgnd vpwr scs8hd_decap_4
XFILLER_10_80 vgnd vpwr scs8hd_decap_12
XFILLER_19_110 vgnd vpwr scs8hd_decap_12
XFILLER_19_165 vpwr vgnd scs8hd_fill_2
XFILLER_42_190 vgnd vpwr scs8hd_decap_8
XFILLER_19_176 vgnd vpwr scs8hd_decap_4
XFILLER_19_187 vpwr vgnd scs8hd_fill_2
XANTENNA_mux_bottom_track_5.mux_l2_in_1__A1 mux_bottom_track_5.mux_l1_in_2_/X vgnd
+ vpwr scs8hd_diode_2
XFILLER_40_149 vgnd vpwr scs8hd_fill_1
XFILLER_40_105 vgnd vpwr scs8hd_decap_12
XFILLER_25_179 vpwr vgnd scs8hd_fill_2
XANTENNA_mux_right_track_12.mux_l2_in_1__A1 chany_bottom_in[10] vgnd vpwr scs8hd_diode_2
XANTENNA__083__A _083_/A vgnd vpwr scs8hd_diode_2
XFILLER_15_58 vgnd vpwr scs8hd_decap_3
Xmux_right_track_10.mux_l1_in_0_ chany_top_in[11] chany_top_in[9] mux_right_track_10.mux_l1_in_0_/S
+ mux_right_track_10.mux_l1_in_0_/X vgnd vpwr scs8hd_mux2_1
Xmux_right_track_8.mux_l2_in_0_ right_top_grid_pin_42_ mux_right_track_8.mux_l1_in_0_/X
+ mux_right_track_8.mux_l2_in_0_/S mux_right_track_8.mux_l2_in_0_/X vgnd vpwr scs8hd_mux2_1
XFILLER_31_138 vpwr vgnd scs8hd_fill_2
XPHY_130 vgnd vpwr scs8hd_tapvpwrvgnd_1
XPHY_141 vgnd vpwr scs8hd_tapvpwrvgnd_1
XPHY_152 vgnd vpwr scs8hd_tapvpwrvgnd_1
XANTENNA_mux_right_track_8.mux_l2_in_1__A0 _035_/HI vgnd vpwr scs8hd_diode_2
XPHY_163 vgnd vpwr scs8hd_tapvpwrvgnd_1
XPHY_174 vgnd vpwr scs8hd_tapvpwrvgnd_1
XPHY_185 vgnd vpwr scs8hd_tapvpwrvgnd_1
XPHY_196 vgnd vpwr scs8hd_tapvpwrvgnd_1
Xmux_top_track_0.mux_l2_in_0_ mux_top_track_0.mux_l1_in_1_/X mux_top_track_0.mux_l1_in_0_/X
+ mux_top_track_0.mux_l2_in_0_/S mux_top_track_0.mux_l2_in_0_/X vgnd vpwr scs8hd_mux2_1
XFILLER_39_249 vgnd vpwr scs8hd_decap_4
Xmux_right_track_22.mux_l2_in_0_ mux_right_track_22.mux_l1_in_1_/X mux_right_track_22.mux_l1_in_0_/X
+ mux_right_track_22.mux_l2_in_0_/S mux_right_track_22.mux_l2_in_0_/X vgnd vpwr scs8hd_mux2_1
XFILLER_22_105 vgnd vpwr scs8hd_decap_12
XFILLER_26_68 vgnd vpwr scs8hd_decap_12
XANTENNA__078__A chany_top_in[16] vgnd vpwr scs8hd_diode_2
XFILLER_42_56 vgnd vpwr scs8hd_decap_6
XFILLER_21_193 vpwr vgnd scs8hd_fill_2
XFILLER_3_39 vgnd vpwr scs8hd_decap_12
XANTENNA_mux_bottom_track_5.mux_l1_in_2__S mux_bottom_track_5.mux_l1_in_0_/S vgnd
+ vpwr scs8hd_diode_2
XANTENNA_mux_bottom_track_5.mux_l3_in_0__A1 mux_bottom_track_5.mux_l2_in_0_/X vgnd
+ vpwr scs8hd_diode_2
XFILLER_8_164 vpwr vgnd scs8hd_fill_2
XANTENNA_mux_right_track_12.mux_l3_in_0__A1 mux_right_track_12.mux_l2_in_0_/X vgnd
+ vpwr scs8hd_diode_2
XFILLER_35_241 vgnd vpwr scs8hd_decap_3
XANTENNA_mux_right_track_22.mux_l1_in_0__A1 chany_top_in[17] vgnd vpwr scs8hd_diode_2
XFILLER_12_15 vgnd vpwr scs8hd_decap_12
XANTENNA_mux_right_track_8.mux_l3_in_0__A0 mux_right_track_8.mux_l2_in_1_/X vgnd vpwr
+ scs8hd_diode_2
XANTENNA_mux_bottom_track_9.mux_l2_in_0__S mux_bottom_track_9.mux_l2_in_0_/S vgnd
+ vpwr scs8hd_diode_2
XFILLER_41_233 vpwr vgnd scs8hd_fill_2
XFILLER_26_252 vpwr vgnd scs8hd_fill_2
Xmux_top_track_0.mux_l1_in_1_ chanx_right_in[15] chanx_right_in[8] mux_top_track_0.mux_l1_in_0_/S
+ mux_top_track_0.mux_l1_in_1_/X vgnd vpwr scs8hd_mux2_1
Xmux_right_track_22.mux_l1_in_1_ _030_/HI chany_bottom_in[17] mux_right_track_22.mux_l1_in_0_/S
+ mux_right_track_22.mux_l1_in_1_/X vgnd vpwr scs8hd_mux2_1
XFILLER_5_123 vgnd vpwr scs8hd_fill_1
XANTENNA_mux_bottom_track_17.mux_l1_in_0__A0 chany_top_in[17] vgnd vpwr scs8hd_diode_2
XFILLER_17_230 vpwr vgnd scs8hd_fill_2
XANTENNA_mux_right_track_14.mux_l2_in_1__S mux_right_track_14.mux_l2_in_0_/S vgnd
+ vpwr scs8hd_diode_2
XANTENNA_mux_bottom_track_17.mux_l1_in_1__S mux_bottom_track_17.mux_l1_in_0_/S vgnd
+ vpwr scs8hd_diode_2
XFILLER_4_93 vgnd vpwr scs8hd_decap_12
XFILLER_2_104 vgnd vpwr scs8hd_decap_8
XANTENNA__091__A _091_/A vgnd vpwr scs8hd_diode_2
XANTENNA_mem_bottom_track_9.scs8hd_dfxbp_1_2__CLK prog_clk vgnd vpwr scs8hd_diode_2
XFILLER_9_27 vgnd vpwr scs8hd_decap_12
XFILLER_14_266 vgnd vpwr scs8hd_decap_8
XANTENNA_mux_right_track_2.mux_l1_in_0__S mux_right_track_2.mux_l1_in_1_/S vgnd vpwr
+ scs8hd_diode_2
XANTENNA_mux_right_track_20.scs8hd_buf_4_0__A mux_right_track_20.mux_l2_in_0_/X vgnd
+ vpwr scs8hd_diode_2
XFILLER_20_247 vpwr vgnd scs8hd_fill_2
XANTENNA_mem_right_track_6.scs8hd_dfxbp_1_2__D mux_right_track_6.mux_l2_in_1_/S vgnd
+ vpwr scs8hd_diode_2
XFILLER_34_68 vgnd vpwr scs8hd_decap_12
XANTENNA__086__A chany_top_in[8] vgnd vpwr scs8hd_diode_2
XFILLER_11_269 vgnd vpwr scs8hd_decap_8
XFILLER_1_3 vgnd vpwr scs8hd_decap_12
X_040_ _040_/HI _040_/LO vgnd vpwr scs8hd_conb_1
XANTENNA_mux_top_track_2.mux_l2_in_0__S mux_top_track_2.mux_l2_in_0_/S vgnd vpwr scs8hd_diode_2
XFILLER_6_240 vgnd vpwr scs8hd_decap_3
XFILLER_6_273 vpwr vgnd scs8hd_fill_2
XFILLER_37_111 vgnd vpwr scs8hd_decap_8
XANTENNA_mux_top_track_4.mux_l1_in_2__A0 chany_bottom_in[14] vgnd vpwr scs8hd_diode_2
XANTENNA_mux_top_track_8.mux_l1_in_1__S mux_top_track_8.mux_l1_in_2_/S vgnd vpwr scs8hd_diode_2
XFILLER_20_15 vgnd vpwr scs8hd_decap_12
XFILLER_3_276 vgnd vpwr scs8hd_fill_1
XFILLER_34_136 vpwr vgnd scs8hd_fill_2
XFILLER_25_114 vpwr vgnd scs8hd_fill_2
XANTENNA_mem_right_track_24.scs8hd_dfxbp_1_2__D mux_right_track_24.mux_l2_in_0_/S
+ vgnd vpwr scs8hd_diode_2
XANTENNA_mux_right_track_8.mux_l2_in_1__A1 chany_bottom_in[8] vgnd vpwr scs8hd_diode_2
XPHY_120 vgnd vpwr scs8hd_tapvpwrvgnd_1
XPHY_131 vgnd vpwr scs8hd_tapvpwrvgnd_1
XPHY_142 vgnd vpwr scs8hd_tapvpwrvgnd_1
XPHY_153 vgnd vpwr scs8hd_tapvpwrvgnd_1
XPHY_164 vgnd vpwr scs8hd_tapvpwrvgnd_1
XPHY_175 vgnd vpwr scs8hd_tapvpwrvgnd_1
XPHY_186 vgnd vpwr scs8hd_tapvpwrvgnd_1
XPHY_197 vgnd vpwr scs8hd_tapvpwrvgnd_1
XFILLER_39_228 vgnd vpwr scs8hd_decap_4
XFILLER_39_217 vpwr vgnd scs8hd_fill_2
XANTENNA_mux_top_track_4.mux_l2_in_1__A0 _041_/HI vgnd vpwr scs8hd_diode_2
XPHY_0 vgnd vpwr scs8hd_decap_3
XFILLER_22_117 vgnd vpwr scs8hd_decap_12
XFILLER_38_250 vpwr vgnd scs8hd_fill_2
XANTENNA_mux_bottom_track_9.mux_l1_in_1__A0 chanx_right_in[9] vgnd vpwr scs8hd_diode_2