* NGSPICE file created from sb_0__1_.ext - technology: EFS8A

* Black-box entry subcircuit for scs8hd_lpflow_inputisolatch_1 abstract view
.subckt scs8hd_lpflow_inputisolatch_1 D Q SLEEPB vgnd vpwr
.ends

* Black-box entry subcircuit for scs8hd_fill_2 abstract view
.subckt scs8hd_fill_2 vpwr vgnd
.ends

* Black-box entry subcircuit for scs8hd_decap_4 abstract view
.subckt scs8hd_decap_4 vgnd vpwr
.ends

* Black-box entry subcircuit for scs8hd_decap_6 abstract view
.subckt scs8hd_decap_6 vgnd vpwr
.ends

* Black-box entry subcircuit for scs8hd_inv_1 abstract view
.subckt scs8hd_inv_1 A Y vgnd vpwr
.ends

* Black-box entry subcircuit for scs8hd_fill_1 abstract view
.subckt scs8hd_fill_1 vgnd vpwr
.ends

* Black-box entry subcircuit for scs8hd_ebufn_2 abstract view
.subckt scs8hd_ebufn_2 A TEB Z vgnd vpwr
.ends

* Black-box entry subcircuit for scs8hd_diode_2 abstract view
.subckt scs8hd_diode_2 DIODE vgnd vpwr
.ends

* Black-box entry subcircuit for scs8hd_decap_3 abstract view
.subckt scs8hd_decap_3 vgnd vpwr
.ends

* Black-box entry subcircuit for scs8hd_decap_12 abstract view
.subckt scs8hd_decap_12 vgnd vpwr
.ends

* Black-box entry subcircuit for scs8hd_decap_8 abstract view
.subckt scs8hd_decap_8 vgnd vpwr
.ends

* Black-box entry subcircuit for scs8hd_buf_2 abstract view
.subckt scs8hd_buf_2 A X vgnd vpwr
.ends

* Black-box entry subcircuit for scs8hd_nor2_4 abstract view
.subckt scs8hd_nor2_4 A B Y vgnd vpwr
.ends

* Black-box entry subcircuit for scs8hd_inv_8 abstract view
.subckt scs8hd_inv_8 A Y vgnd vpwr
.ends

* Black-box entry subcircuit for scs8hd_tapvpwrvgnd_1 abstract view
.subckt scs8hd_tapvpwrvgnd_1 vgnd vpwr
.ends

* Black-box entry subcircuit for scs8hd_conb_1 abstract view
.subckt scs8hd_conb_1 HI LO vgnd vpwr
.ends

* Black-box entry subcircuit for scs8hd_nor4_4 abstract view
.subckt scs8hd_nor4_4 A B C D Y vgnd vpwr
.ends

* Black-box entry subcircuit for scs8hd_or3_4 abstract view
.subckt scs8hd_or3_4 A B C X vgnd vpwr
.ends

* Black-box entry subcircuit for scs8hd_buf_1 abstract view
.subckt scs8hd_buf_1 A X vgnd vpwr
.ends

.subckt sb_0__1_ address[0] address[1] address[2] address[3] address[4] address[5]
+ address[6] bottom_left_grid_pin_11_ bottom_left_grid_pin_13_ bottom_left_grid_pin_15_
+ bottom_left_grid_pin_1_ bottom_left_grid_pin_3_ bottom_left_grid_pin_5_ bottom_left_grid_pin_7_
+ bottom_left_grid_pin_9_ bottom_right_grid_pin_11_ chanx_right_in[0] chanx_right_in[1]
+ chanx_right_in[2] chanx_right_in[3] chanx_right_in[4] chanx_right_in[5] chanx_right_in[6]
+ chanx_right_in[7] chanx_right_in[8] chanx_right_out[0] chanx_right_out[1] chanx_right_out[2]
+ chanx_right_out[3] chanx_right_out[4] chanx_right_out[5] chanx_right_out[6] chanx_right_out[7]
+ chanx_right_out[8] chany_bottom_in[0] chany_bottom_in[1] chany_bottom_in[2] chany_bottom_in[3]
+ chany_bottom_in[4] chany_bottom_in[5] chany_bottom_in[6] chany_bottom_in[7] chany_bottom_in[8]
+ chany_bottom_out[0] chany_bottom_out[1] chany_bottom_out[2] chany_bottom_out[3]
+ chany_bottom_out[4] chany_bottom_out[5] chany_bottom_out[6] chany_bottom_out[7]
+ chany_bottom_out[8] chany_top_in[0] chany_top_in[1] chany_top_in[2] chany_top_in[3]
+ chany_top_in[4] chany_top_in[5] chany_top_in[6] chany_top_in[7] chany_top_in[8]
+ chany_top_out[0] chany_top_out[1] chany_top_out[2] chany_top_out[3] chany_top_out[4]
+ chany_top_out[5] chany_top_out[6] chany_top_out[7] chany_top_out[8] data_in enable
+ right_bottom_grid_pin_12_ right_top_grid_pin_10_ top_left_grid_pin_11_ top_left_grid_pin_13_
+ top_left_grid_pin_15_ top_left_grid_pin_1_ top_left_grid_pin_3_ top_left_grid_pin_5_
+ top_left_grid_pin_7_ top_left_grid_pin_9_ top_right_grid_pin_11_ vpwr vgnd
Xmem_right_track_12.LATCH_1_.latch data_in _181_/A _167_/Y vgnd vpwr scs8hd_lpflow_inputisolatch_1
XFILLER_22_199 vpwr vgnd scs8hd_fill_2
XFILLER_22_144 vgnd vpwr scs8hd_decap_4
XFILLER_22_100 vgnd vpwr scs8hd_decap_6
Xmux_bottom_track_1.INVTX1_1_.scs8hd_inv_1 chany_top_in[4] mux_bottom_track_1.INVTX1_1_.scs8hd_inv_1/Y
+ vgnd vpwr scs8hd_inv_1
XFILLER_26_74 vgnd vpwr scs8hd_fill_1
XFILLER_13_177 vgnd vpwr scs8hd_decap_4
Xmux_top_track_8.mux_l1_in_2_.TGATE_0_.scs8hd_ebufn_2 mux_top_track_8.INVTX1_6_.scs8hd_inv_1/Y
+ mem_top_track_8.LATCH_0_.latch/Q mux_top_track_8.mux_l1_in_2_.TGATE_1_.scs8hd_ebufn_2/Z
+ vgnd vpwr scs8hd_ebufn_2
XANTENNA_mem_top_track_0.LATCH_3_.latch_D data_in vgnd vpwr scs8hd_diode_2
XANTENNA__113__B _110_/B vgnd vpwr scs8hd_diode_2
XFILLER_3_23 vgnd vpwr scs8hd_decap_3
Xmux_top_track_8.INVTX1_0_.scs8hd_inv_1 top_left_grid_pin_3_ mux_top_track_8.INVTX1_0_.scs8hd_inv_1/Y
+ vgnd vpwr scs8hd_inv_1
XANTENNA_mux_bottom_track_9.mux_l1_in_0_.TGATE_2_.scs8hd_ebufn_2_TEB mem_bottom_track_9.LATCH_2_.latch/Q
+ vgnd vpwr scs8hd_diode_2
XFILLER_12_32 vgnd vpwr scs8hd_decap_12
XFILLER_10_125 vgnd vpwr scs8hd_decap_6
Xmux_right_track_12.mux_l2_in_0_.TGATE_0_.scs8hd_ebufn_2 mux_right_track_12.mux_l2_in_0_.TGATE_0_.scs8hd_ebufn_2/A
+ _181_/A mux_right_track_12.tap_buf4_0_.scs8hd_inv_1/A vgnd vpwr scs8hd_ebufn_2
XANTENNA__214__A chany_top_in[2] vgnd vpwr scs8hd_diode_2
XANTENNA_mem_top_track_16.LATCH_0_.latch_SLEEPB _124_/Y vgnd vpwr scs8hd_diode_2
XFILLER_37_51 vgnd vpwr scs8hd_decap_8
XFILLER_37_62 vgnd vpwr scs8hd_decap_12
XANTENNA__108__B _110_/B vgnd vpwr scs8hd_diode_2
XFILLER_33_206 vgnd vpwr scs8hd_decap_4
XFILLER_33_217 vgnd vpwr scs8hd_decap_12
XFILLER_41_272 vgnd vpwr scs8hd_decap_4
XANTENNA__124__A _113_/A vgnd vpwr scs8hd_diode_2
Xmux_right_track_4.mux_l1_in_1_.TGATE_1_.scs8hd_ebufn_2 _194_/HI _176_/Y mux_right_track_4.mux_l1_in_1_.TGATE_0_.scs8hd_ebufn_2/Z
+ vgnd vpwr scs8hd_ebufn_2
XFILLER_5_184 vgnd vpwr scs8hd_decap_4
Xmux_bottom_track_17.mux_l1_in_2_.TGATE_2_.scs8hd_ebufn_2 _188_/HI mem_bottom_track_17.LATCH_2_.latch/Q
+ mux_bottom_track_17.mux_l1_in_2_.TGATE_2_.scs8hd_ebufn_2/Z vgnd vpwr scs8hd_ebufn_2
XFILLER_24_206 vpwr vgnd scs8hd_fill_2
XANTENNA_mux_right_track_4.tap_buf4_0_.scs8hd_inv_1_A mux_right_track_4.tap_buf4_0_.scs8hd_inv_1/A
+ vgnd vpwr scs8hd_diode_2
X_200_ _200_/A chanx_right_out[8] vgnd vpwr scs8hd_buf_2
XFILLER_23_261 vgnd vpwr scs8hd_decap_3
XFILLER_15_217 vpwr vgnd scs8hd_fill_2
XANTENNA__209__A _209_/A vgnd vpwr scs8hd_diode_2
X_131_ _110_/A _128_/X _131_/Y vgnd vpwr scs8hd_nor2_4
XFILLER_23_97 vpwr vgnd scs8hd_fill_2
XFILLER_2_154 vpwr vgnd scs8hd_fill_2
XFILLER_2_132 vpwr vgnd scs8hd_fill_2
XFILLER_0_68 vpwr vgnd scs8hd_fill_2
XANTENNA__119__A _085_/A vgnd vpwr scs8hd_diode_2
XFILLER_14_261 vgnd vpwr scs8hd_decap_12
XFILLER_9_99 vpwr vgnd scs8hd_fill_2
XFILLER_9_88 vgnd vpwr scs8hd_decap_4
Xmem_bottom_track_17.LATCH_2_.latch data_in mem_bottom_track_17.LATCH_2_.latch/Q _151_/Y
+ vgnd vpwr scs8hd_lpflow_inputisolatch_1
Xmux_bottom_track_9.tap_buf4_0_.scs8hd_inv_1 mux_bottom_track_9.tap_buf4_0_.scs8hd_inv_1/A
+ _213_/A vgnd vpwr scs8hd_inv_1
Xmux_bottom_track_1.mux_l1_in_0_.TGATE_1_.scs8hd_ebufn_2 mux_bottom_track_1.INVTX1_1_.scs8hd_inv_1/Y
+ mem_bottom_track_1.LATCH_1_.latch/Q mux_bottom_track_1.mux_l1_in_0_.TGATE_2_.scs8hd_ebufn_2/Z
+ vgnd vpwr scs8hd_ebufn_2
XANTENNA_mem_bottom_track_17.LATCH_0_.latch_D data_in vgnd vpwr scs8hd_diode_2
XANTENNA_mem_top_track_16.LATCH_1_.latch_D data_in vgnd vpwr scs8hd_diode_2
XFILLER_18_97 vpwr vgnd scs8hd_fill_2
XFILLER_18_64 vgnd vpwr scs8hd_decap_8
XFILLER_11_231 vpwr vgnd scs8hd_fill_2
X_114_ address[4] _115_/B vgnd vpwr scs8hd_inv_8
XANTENNA_mem_top_track_0.LATCH_2_.latch_SLEEPB _095_/Y vgnd vpwr scs8hd_diode_2
Xmux_bottom_track_9.INVTX1_6_.scs8hd_inv_1 bottom_left_grid_pin_7_ mux_bottom_track_9.INVTX1_6_.scs8hd_inv_1/Y
+ vgnd vpwr scs8hd_inv_1
XANTENNA__121__B _119_/B vgnd vpwr scs8hd_diode_2
XFILLER_38_117 vgnd vpwr scs8hd_decap_12
Xmux_top_track_0.mux_l2_in_0_.TGATE_1_.scs8hd_ebufn_2 mux_top_track_0.mux_l2_in_0_.TGATE_1_.scs8hd_ebufn_2/A
+ mem_top_track_0.LATCH_4_.latch/Q mux_top_track_0.tap_buf4_0_.scs8hd_inv_1/A vgnd
+ vpwr scs8hd_ebufn_2
XFILLER_20_32 vgnd vpwr scs8hd_decap_12
XFILLER_29_74 vgnd vpwr scs8hd_decap_12
XANTENNA__222__A _222_/A vgnd vpwr scs8hd_diode_2
Xmux_top_track_16.INVTX1_7_.scs8hd_inv_1 chany_bottom_in[6] mux_top_track_16.INVTX1_7_.scs8hd_inv_1/Y
+ vgnd vpwr scs8hd_inv_1
XFILLER_28_150 vgnd vpwr scs8hd_decap_3
XANTENNA__132__A _095_/B vgnd vpwr scs8hd_diode_2
XFILLER_6_67 vpwr vgnd scs8hd_fill_2
XFILLER_6_56 vpwr vgnd scs8hd_fill_2
XFILLER_6_45 vgnd vpwr scs8hd_decap_8
XANTENNA_mux_bottom_track_17.mux_l1_in_0_.TGATE_1_.scs8hd_ebufn_2_A mux_bottom_track_17.INVTX1_1_.scs8hd_inv_1/Y
+ vgnd vpwr scs8hd_diode_2
XFILLER_13_3 vgnd vpwr scs8hd_decap_12
Xmem_right_track_8.LATCH_1_.latch data_in _183_/A _169_/Y vgnd vpwr scs8hd_lpflow_inputisolatch_1
XFILLER_1_208 vpwr vgnd scs8hd_fill_2
XANTENNA_mux_top_track_0.mux_l2_in_0_.TGATE_2_.scs8hd_ebufn_2_A mux_top_track_0.mux_l1_in_2_.TGATE_0_.scs8hd_ebufn_2/Z
+ vgnd vpwr scs8hd_diode_2
XFILLER_25_175 vpwr vgnd scs8hd_fill_2
XFILLER_25_131 vpwr vgnd scs8hd_fill_2
XFILLER_40_178 vgnd vpwr scs8hd_decap_8
XANTENNA__217__A _217_/A vgnd vpwr scs8hd_diode_2
Xmux_right_track_6.mux_l1_in_0_.TGATE_0_.scs8hd_ebufn_2 mux_right_track_6.INVTX1_0_.scs8hd_inv_1/Y
+ _178_/A mux_right_track_6.mux_l1_in_0_.TGATE_1_.scs8hd_ebufn_2/Z vgnd vpwr scs8hd_ebufn_2
XFILLER_31_86 vgnd vpwr scs8hd_decap_12
XPHY_170 vgnd vpwr scs8hd_tapvpwrvgnd_1
XANTENNA__127__A _106_/A vgnd vpwr scs8hd_diode_2
XFILLER_31_123 vgnd vpwr scs8hd_decap_12
XPHY_181 vgnd vpwr scs8hd_tapvpwrvgnd_1
XPHY_192 vgnd vpwr scs8hd_tapvpwrvgnd_1
XANTENNA_mux_right_track_10.mux_l1_in_0_.TGATE_1_.scs8hd_ebufn_2_TEB _180_/Y vgnd
+ vpwr scs8hd_diode_2
XFILLER_39_212 vgnd vpwr scs8hd_decap_4
XANTENNA_mux_bottom_track_17.mux_l1_in_2_.TGATE_2_.scs8hd_ebufn_2_A _188_/HI vgnd
+ vpwr scs8hd_diode_2
XFILLER_39_245 vgnd vpwr scs8hd_decap_8
XFILLER_22_123 vgnd vpwr scs8hd_fill_1
Xmux_right_track_12.mux_l1_in_1_.TGATE_1_.scs8hd_ebufn_2 _191_/HI _182_/Y mux_right_track_12.mux_l1_in_1_.TGATE_1_.scs8hd_ebufn_2/Z
+ vgnd vpwr scs8hd_ebufn_2
XFILLER_26_97 vgnd vpwr scs8hd_decap_8
XFILLER_13_167 vpwr vgnd scs8hd_fill_2
XFILLER_13_134 vpwr vgnd scs8hd_fill_2
XFILLER_42_63 vgnd vpwr scs8hd_decap_12
Xmux_top_track_16.mux_l1_in_2_.TGATE_1_.scs8hd_ebufn_2 mux_top_track_16.INVTX1_7_.scs8hd_inv_1/Y
+ mem_top_track_16.LATCH_1_.latch/Q mux_top_track_16.mux_l2_in_0_.TGATE_2_.scs8hd_ebufn_2/A
+ vgnd vpwr scs8hd_ebufn_2
XFILLER_3_57 vpwr vgnd scs8hd_fill_2
XFILLER_3_46 vgnd vpwr scs8hd_fill_1
XFILLER_3_35 vpwr vgnd scs8hd_fill_2
XFILLER_36_215 vgnd vpwr scs8hd_decap_12
XANTENNA_mux_right_track_12.mux_l2_in_0_.TGATE_0_.scs8hd_ebufn_2_A mux_right_track_12.mux_l2_in_0_.TGATE_0_.scs8hd_ebufn_2/A
+ vgnd vpwr scs8hd_diode_2
Xmux_top_track_0.INVTX1_3_.scs8hd_inv_1 chanx_right_in[1] mux_top_track_0.INVTX1_3_.scs8hd_inv_1/Y
+ vgnd vpwr scs8hd_inv_1
XANTENNA_mux_right_track_6.mux_l1_in_1_.TGATE_1_.scs8hd_ebufn_2_A _195_/HI vgnd vpwr
+ scs8hd_diode_2
XFILLER_8_182 vgnd vpwr scs8hd_decap_8
XFILLER_27_226 vpwr vgnd scs8hd_fill_2
XFILLER_42_218 vgnd vpwr scs8hd_decap_12
XFILLER_12_88 vgnd vpwr scs8hd_decap_4
XFILLER_12_44 vgnd vpwr scs8hd_decap_3
XFILLER_37_74 vgnd vpwr scs8hd_decap_12
XFILLER_18_215 vpwr vgnd scs8hd_fill_2
XFILLER_33_229 vgnd vpwr scs8hd_decap_12
XFILLER_41_251 vgnd vpwr scs8hd_fill_1
XANTENNA__124__B _119_/B vgnd vpwr scs8hd_diode_2
XANTENNA_mux_bottom_track_9.mux_l1_in_1_.TGATE_1_.scs8hd_ebufn_2_TEB mem_bottom_track_9.LATCH_1_.latch/Q
+ vgnd vpwr scs8hd_diode_2
XFILLER_5_163 vgnd vpwr scs8hd_fill_1
XANTENNA__140__A _109_/A vgnd vpwr scs8hd_diode_2
XANTENNA_mux_bottom_track_1.mux_l1_in_0_.TGATE_1_.scs8hd_ebufn_2_TEB mem_bottom_track_1.LATCH_1_.latch/Q
+ vgnd vpwr scs8hd_diode_2
XANTENNA_mux_top_track_0.INVTX1_0_.scs8hd_inv_1_A top_left_grid_pin_1_ vgnd vpwr scs8hd_diode_2
X_130_ _109_/A _128_/X _130_/Y vgnd vpwr scs8hd_nor2_4
XFILLER_23_240 vpwr vgnd scs8hd_fill_2
XANTENNA__225__A chany_bottom_in[0] vgnd vpwr scs8hd_diode_2
XFILLER_23_76 vpwr vgnd scs8hd_fill_2
XANTENNA__119__B _119_/B vgnd vpwr scs8hd_diode_2
XFILLER_0_58 vpwr vgnd scs8hd_fill_2
XFILLER_0_47 vpwr vgnd scs8hd_fill_2
Xmux_top_track_0.mux_l1_in_1_.TGATE_2_.scs8hd_ebufn_2 mux_top_track_0.INVTX1_5_.scs8hd_inv_1/Y
+ mem_top_track_0.LATCH_2_.latch/Q mux_top_track_0.mux_l2_in_0_.TGATE_1_.scs8hd_ebufn_2/A
+ vgnd vpwr scs8hd_ebufn_2
XANTENNA__135__A _103_/Y vgnd vpwr scs8hd_diode_2
XFILLER_14_273 vpwr vgnd scs8hd_fill_2
XANTENNA_mem_right_track_2.LATCH_0_.latch_D data_in vgnd vpwr scs8hd_diode_2
XANTENNA_mux_top_track_8.INVTX1_2_.scs8hd_inv_1_A top_left_grid_pin_15_ vgnd vpwr
+ scs8hd_diode_2
XFILLER_20_276 vgnd vpwr scs8hd_fill_1
XANTENNA_mux_bottom_track_17.mux_l1_in_0_.TGATE_0_.scs8hd_ebufn_2_TEB mem_bottom_track_17.LATCH_0_.latch/Q
+ vgnd vpwr scs8hd_diode_2
XFILLER_18_32 vgnd vpwr scs8hd_decap_12
X_113_ _113_/A _110_/B _113_/Y vgnd vpwr scs8hd_nor2_4
XFILLER_11_265 vpwr vgnd scs8hd_fill_2
XFILLER_11_254 vpwr vgnd scs8hd_fill_2
XFILLER_11_210 vpwr vgnd scs8hd_fill_2
XFILLER_7_236 vgnd vpwr scs8hd_decap_4
XFILLER_7_269 vgnd vpwr scs8hd_decap_8
XFILLER_7_258 vgnd vpwr scs8hd_fill_1
XANTENNA_mux_right_track_12.mux_l1_in_0_.TGATE_0_.scs8hd_ebufn_2_TEB _182_/A vgnd
+ vpwr scs8hd_diode_2
XFILLER_38_129 vgnd vpwr scs8hd_decap_12
Xmux_right_track_14.mux_l1_in_0_.TGATE_0_.scs8hd_ebufn_2 mux_right_track_14.INVTX1_0_.scs8hd_inv_1/Y
+ _186_/A mux_right_track_14.mux_l2_in_0_.TGATE_0_.scs8hd_ebufn_2/A vgnd vpwr scs8hd_ebufn_2
XANTENNA_mux_bottom_track_1.INVTX1_5_.scs8hd_inv_1_A bottom_right_grid_pin_11_ vgnd
+ vpwr scs8hd_diode_2
XFILLER_37_184 vgnd vpwr scs8hd_decap_12
XFILLER_20_44 vgnd vpwr scs8hd_decap_12
XFILLER_4_206 vgnd vpwr scs8hd_decap_3
XFILLER_29_86 vgnd vpwr scs8hd_decap_12
XFILLER_28_184 vpwr vgnd scs8hd_fill_2
XANTENNA__132__B _128_/X vgnd vpwr scs8hd_diode_2
XFILLER_19_184 vpwr vgnd scs8hd_fill_2
XFILLER_34_154 vgnd vpwr scs8hd_decap_12
XANTENNA_mux_bottom_track_9.INVTX1_7_.scs8hd_inv_1_A bottom_left_grid_pin_13_ vgnd
+ vpwr scs8hd_diode_2
XANTENNA_mux_top_track_8.mux_l1_in_1_.TGATE_2_.scs8hd_ebufn_2_TEB mem_top_track_8.LATCH_2_.latch/Q
+ vgnd vpwr scs8hd_diode_2
XANTENNA_mux_top_track_0.mux_l1_in_0_.TGATE_2_.scs8hd_ebufn_2_TEB mem_top_track_0.LATCH_2_.latch/Q
+ vgnd vpwr scs8hd_diode_2
XANTENNA_mux_top_track_16.mux_l1_in_0_.TGATE_1_.scs8hd_ebufn_2_TEB mem_top_track_16.LATCH_1_.latch/Q
+ vgnd vpwr scs8hd_diode_2
XFILLER_25_165 vpwr vgnd scs8hd_fill_2
XFILLER_25_110 vgnd vpwr scs8hd_fill_1
XFILLER_15_88 vpwr vgnd scs8hd_fill_2
XFILLER_31_98 vgnd vpwr scs8hd_decap_12
XFILLER_0_242 vgnd vpwr scs8hd_decap_4
XFILLER_0_231 vgnd vpwr scs8hd_decap_4
XFILLER_16_132 vpwr vgnd scs8hd_fill_2
XPHY_160 vgnd vpwr scs8hd_tapvpwrvgnd_1
XPHY_171 vgnd vpwr scs8hd_tapvpwrvgnd_1
XPHY_182 vgnd vpwr scs8hd_tapvpwrvgnd_1
XPHY_193 vgnd vpwr scs8hd_tapvpwrvgnd_1
XANTENNA__127__B _167_/B vgnd vpwr scs8hd_diode_2
XFILLER_31_135 vgnd vpwr scs8hd_decap_12
XFILLER_16_176 vpwr vgnd scs8hd_fill_2
XANTENNA__143__A _098_/B vgnd vpwr scs8hd_diode_2
XFILLER_39_224 vgnd vpwr scs8hd_decap_8
XFILLER_22_157 vgnd vpwr scs8hd_decap_8
XANTENNA_mux_right_track_2.mux_l2_in_0_.TGATE_1_.scs8hd_ebufn_2_TEB _173_/Y vgnd vpwr
+ scs8hd_diode_2
XFILLER_26_32 vgnd vpwr scs8hd_decap_12
XFILLER_13_146 vgnd vpwr scs8hd_fill_1
XFILLER_13_113 vpwr vgnd scs8hd_fill_2
XANTENNA_mux_right_track_10.mux_l1_in_1_.TGATE_0_.scs8hd_ebufn_2_TEB _180_/A vgnd
+ vpwr scs8hd_diode_2
XFILLER_42_75 vgnd vpwr scs8hd_decap_12
Xmux_bottom_track_17.tap_buf4_0_.scs8hd_inv_1 mux_bottom_track_17.tap_buf4_0_.scs8hd_inv_1/A
+ _209_/A vgnd vpwr scs8hd_inv_1
XANTENNA_mux_bottom_track_17.INVTX1_5_.scs8hd_inv_1_A bottom_left_grid_pin_3_ vgnd
+ vpwr scs8hd_diode_2
XANTENNA_mux_right_track_2.INVTX1_2_.scs8hd_inv_1_A right_bottom_grid_pin_12_ vgnd
+ vpwr scs8hd_diode_2
XANTENNA__138__A _137_/X vgnd vpwr scs8hd_diode_2
XFILLER_36_227 vgnd vpwr scs8hd_decap_12
Xmux_bottom_track_9.mux_l1_in_2_.TGATE_1_.scs8hd_ebufn_2 mux_bottom_track_9.INVTX1_7_.scs8hd_inv_1/Y
+ mem_bottom_track_9.LATCH_1_.latch/Q mux_bottom_track_9.mux_l2_in_0_.TGATE_2_.scs8hd_ebufn_2/A
+ vgnd vpwr scs8hd_ebufn_2
XFILLER_27_205 vgnd vpwr scs8hd_decap_4
XFILLER_12_67 vpwr vgnd scs8hd_fill_2
XFILLER_37_86 vgnd vpwr scs8hd_decap_12
XFILLER_5_175 vpwr vgnd scs8hd_fill_2
XFILLER_5_142 vpwr vgnd scs8hd_fill_2
XANTENNA__140__B _138_/X vgnd vpwr scs8hd_diode_2
XANTENNA_mux_top_track_0.mux_l1_in_1_.TGATE_2_.scs8hd_ebufn_2_A mux_top_track_0.INVTX1_5_.scs8hd_inv_1/Y
+ vgnd vpwr scs8hd_diode_2
XFILLER_17_260 vpwr vgnd scs8hd_fill_2
XANTENNA_mem_right_track_14.LATCH_1_.latch_SLEEPB _171_/Y vgnd vpwr scs8hd_diode_2
XFILLER_23_230 vpwr vgnd scs8hd_fill_2
XANTENNA_mux_bottom_track_9.mux_l1_in_2_.TGATE_0_.scs8hd_ebufn_2_TEB mem_bottom_track_9.LATCH_0_.latch/Q
+ vgnd vpwr scs8hd_diode_2
XFILLER_3_3 vgnd vpwr scs8hd_decap_12
XFILLER_2_145 vpwr vgnd scs8hd_fill_2
XANTENNA_mux_bottom_track_1.mux_l1_in_1_.TGATE_0_.scs8hd_ebufn_2_TEB mem_bottom_track_1.LATCH_0_.latch/Q
+ vgnd vpwr scs8hd_diode_2
X_189_ _189_/HI _189_/LO vgnd vpwr scs8hd_conb_1
XANTENNA_mux_right_track_12.INVTX1_1_.scs8hd_inv_1_A chany_bottom_in[1] vgnd vpwr
+ scs8hd_diode_2
XANTENNA__135__B _115_/B vgnd vpwr scs8hd_diode_2
XFILLER_9_57 vpwr vgnd scs8hd_fill_2
XANTENNA__151__A _095_/B vgnd vpwr scs8hd_diode_2
XFILLER_36_3 vgnd vpwr scs8hd_decap_12
XFILLER_20_266 vgnd vpwr scs8hd_decap_8
XFILLER_20_255 vgnd vpwr scs8hd_decap_8
XFILLER_18_44 vgnd vpwr scs8hd_decap_12
XFILLER_34_32 vgnd vpwr scs8hd_decap_12
XFILLER_18_88 vgnd vpwr scs8hd_decap_4
XANTENNA_mux_top_track_16.mux_l2_in_0_.TGATE_2_.scs8hd_ebufn_2_A mux_top_track_16.mux_l2_in_0_.TGATE_2_.scs8hd_ebufn_2/A
+ vgnd vpwr scs8hd_diode_2
X_112_ _098_/B _110_/B _112_/Y vgnd vpwr scs8hd_nor2_4
XANTENNA_mux_right_track_12.mux_l1_in_1_.TGATE_0_.scs8hd_ebufn_2_A mux_right_track_12.INVTX1_2_.scs8hd_inv_1/Y
+ vgnd vpwr scs8hd_diode_2
XANTENNA__146__A _160_/A vgnd vpwr scs8hd_diode_2
XANTENNA_mux_right_track_4.mux_l2_in_0_.TGATE_0_.scs8hd_ebufn_2_TEB _175_/A vgnd vpwr
+ scs8hd_diode_2
XFILLER_37_196 vgnd vpwr scs8hd_decap_12
XFILLER_1_80 vpwr vgnd scs8hd_fill_2
Xmux_bottom_track_1.mux_l2_in_0_.TGATE_2_.scs8hd_ebufn_2 mux_bottom_track_1.mux_l1_in_2_.TGATE_1_.scs8hd_ebufn_2/Z
+ mem_bottom_track_1.LATCH_5_.latch/Q mux_bottom_track_1.tap_buf4_0_.scs8hd_inv_1/A
+ vgnd vpwr scs8hd_ebufn_2
Xmux_right_track_2.mux_l2_in_0_.TGATE_0_.scs8hd_ebufn_2 mux_right_track_2.mux_l1_in_0_.TGATE_1_.scs8hd_ebufn_2/Z
+ _173_/A mux_right_track_2.tap_buf4_0_.scs8hd_inv_1/A vgnd vpwr scs8hd_ebufn_2
XFILLER_20_56 vgnd vpwr scs8hd_decap_12
XFILLER_4_229 vpwr vgnd scs8hd_fill_2
XFILLER_4_218 vgnd vpwr scs8hd_decap_3
XFILLER_29_98 vgnd vpwr scs8hd_decap_12
XFILLER_28_163 vgnd vpwr scs8hd_decap_3
XFILLER_34_166 vgnd vpwr scs8hd_decap_12
XFILLER_25_100 vgnd vpwr scs8hd_decap_8
XFILLER_15_67 vpwr vgnd scs8hd_fill_2
XPHY_150 vgnd vpwr scs8hd_tapvpwrvgnd_1
XPHY_161 vgnd vpwr scs8hd_tapvpwrvgnd_1
XPHY_172 vgnd vpwr scs8hd_tapvpwrvgnd_1
XPHY_183 vgnd vpwr scs8hd_tapvpwrvgnd_1
XPHY_194 vgnd vpwr scs8hd_tapvpwrvgnd_1
XANTENNA__127__C _169_/C vgnd vpwr scs8hd_diode_2
XFILLER_31_147 vgnd vpwr scs8hd_decap_12
XANTENNA__143__B _138_/X vgnd vpwr scs8hd_diode_2
XANTENNA_mux_top_track_8.mux_l1_in_2_.TGATE_1_.scs8hd_ebufn_2_TEB mem_top_track_8.LATCH_1_.latch/Q
+ vgnd vpwr scs8hd_diode_2
XANTENNA_mux_top_track_0.mux_l1_in_1_.TGATE_1_.scs8hd_ebufn_2_TEB mem_top_track_0.LATCH_1_.latch/Q
+ vgnd vpwr scs8hd_diode_2
XANTENNA_mux_top_track_16.mux_l1_in_1_.TGATE_0_.scs8hd_ebufn_2_TEB mem_top_track_16.LATCH_0_.latch/Q
+ vgnd vpwr scs8hd_diode_2
XFILLER_39_236 vpwr vgnd scs8hd_fill_2
XANTENNA_mux_right_track_4.INVTX1_0_.scs8hd_inv_1_A chany_top_in[1] vgnd vpwr scs8hd_diode_2
Xmem_right_track_4.LATCH_1_.latch data_in _175_/A _161_/Y vgnd vpwr scs8hd_lpflow_inputisolatch_1
XANTENNA_mem_right_track_2.LATCH_0_.latch_SLEEPB _159_/Y vgnd vpwr scs8hd_diode_2
XFILLER_26_44 vgnd vpwr scs8hd_decap_12
XFILLER_42_87 vgnd vpwr scs8hd_decap_6
XFILLER_42_32 vgnd vpwr scs8hd_decap_12
XFILLER_9_118 vpwr vgnd scs8hd_fill_2
Xmux_right_track_6.mux_l2_in_0_.TGATE_1_.scs8hd_ebufn_2 mux_right_track_6.mux_l1_in_1_.TGATE_1_.scs8hd_ebufn_2/Z
+ _177_/Y mux_right_track_6.tap_buf4_0_.scs8hd_inv_1/A vgnd vpwr scs8hd_ebufn_2
XANTENNA_mux_right_track_8.INVTX1_1_.scs8hd_inv_1_A chany_bottom_in[4] vgnd vpwr scs8hd_diode_2
XFILLER_3_15 vgnd vpwr scs8hd_decap_8
Xmux_bottom_track_17.INVTX1_4_.scs8hd_inv_1 chanx_right_in[8] mux_bottom_track_17.INVTX1_4_.scs8hd_inv_1/Y
+ vgnd vpwr scs8hd_inv_1
XFILLER_36_239 vgnd vpwr scs8hd_decap_12
XANTENNA__154__A _106_/A vgnd vpwr scs8hd_diode_2
Xmux_right_track_14.INVTX1_0_.scs8hd_inv_1 chany_bottom_in[0] mux_right_track_14.INVTX1_0_.scs8hd_inv_1/Y
+ vgnd vpwr scs8hd_inv_1
XFILLER_10_106 vgnd vpwr scs8hd_decap_4
XFILLER_5_7 vgnd vpwr scs8hd_decap_12
XFILLER_18_206 vgnd vpwr scs8hd_decap_6
XFILLER_37_98 vgnd vpwr scs8hd_decap_12
XFILLER_41_220 vgnd vpwr scs8hd_decap_12
XFILLER_26_250 vgnd vpwr scs8hd_decap_3
XANTENNA_mux_top_track_8.mux_l2_in_0_.TGATE_1_.scs8hd_ebufn_2_A mux_top_track_8.mux_l2_in_0_.TGATE_1_.scs8hd_ebufn_2/A
+ vgnd vpwr scs8hd_diode_2
Xmem_top_track_0.LATCH_0_.latch data_in mem_top_track_0.LATCH_0_.latch/Q _101_/Y vgnd
+ vpwr scs8hd_lpflow_inputisolatch_1
XFILLER_5_132 vgnd vpwr scs8hd_decap_4
XANTENNA__149__A _109_/A vgnd vpwr scs8hd_diode_2
Xmux_bottom_track_17.mux_l2_in_0_.TGATE_0_.scs8hd_ebufn_2 mux_bottom_track_17.mux_l1_in_0_.TGATE_1_.scs8hd_ebufn_2/Z
+ mem_bottom_track_17.LATCH_3_.latch/Q mux_bottom_track_17.tap_buf4_0_.scs8hd_inv_1/A
+ vgnd vpwr scs8hd_ebufn_2
XFILLER_2_113 vpwr vgnd scs8hd_fill_2
XANTENNA_mux_bottom_track_1.INVTX1_0_.scs8hd_inv_1_A chany_top_in[0] vgnd vpwr scs8hd_diode_2
XFILLER_0_27 vgnd vpwr scs8hd_decap_4
XANTENNA_mux_top_track_16.INVTX1_7_.scs8hd_inv_1_A chany_bottom_in[6] vgnd vpwr scs8hd_diode_2
XFILLER_9_69 vpwr vgnd scs8hd_fill_2
XFILLER_9_47 vgnd vpwr scs8hd_fill_1
X_188_ _188_/HI _188_/LO vgnd vpwr scs8hd_conb_1
XANTENNA__135__C _081_/C vgnd vpwr scs8hd_diode_2
Xmux_right_track_10.mux_l2_in_0_.TGATE_0_.scs8hd_ebufn_2 mux_right_track_10.mux_l2_in_0_.TGATE_0_.scs8hd_ebufn_2/A
+ _179_/A mux_right_track_10.tap_buf4_0_.scs8hd_inv_1/A vgnd vpwr scs8hd_ebufn_2
XANTENNA__151__B _149_/B vgnd vpwr scs8hd_diode_2
XFILLER_29_3 vgnd vpwr scs8hd_decap_12
Xmux_right_track_2.mux_l1_in_1_.TGATE_1_.scs8hd_ebufn_2 _193_/HI _174_/Y mux_right_track_2.mux_l1_in_1_.TGATE_0_.scs8hd_ebufn_2/Z
+ vgnd vpwr scs8hd_ebufn_2
XFILLER_18_56 vgnd vpwr scs8hd_decap_6
XFILLER_34_44 vgnd vpwr scs8hd_decap_12
X_111_ _095_/B _110_/B _111_/Y vgnd vpwr scs8hd_nor2_4
XANTENNA_mux_bottom_track_9.INVTX1_2_.scs8hd_inv_1_A chanx_right_in[0] vgnd vpwr scs8hd_diode_2
XANTENNA__146__B _125_/Y vgnd vpwr scs8hd_diode_2
XANTENNA__162__A _163_/A vgnd vpwr scs8hd_diode_2
XANTENNA_mem_right_track_14.LATCH_1_.latch_D data_in vgnd vpwr scs8hd_diode_2
XFILLER_20_68 vgnd vpwr scs8hd_decap_6
XANTENNA_mux_right_track_8.mux_l2_in_0_.TGATE_1_.scs8hd_ebufn_2_A _196_/HI vgnd vpwr
+ scs8hd_diode_2
XFILLER_28_197 vpwr vgnd scs8hd_fill_2
XFILLER_3_230 vpwr vgnd scs8hd_fill_2
XANTENNA__157__A _157_/A vgnd vpwr scs8hd_diode_2
XANTENNA_mux_bottom_track_9.mux_l2_in_0_.TGATE_2_.scs8hd_ebufn_2_TEB mem_bottom_track_9.LATCH_5_.latch/Q
+ vgnd vpwr scs8hd_diode_2
XFILLER_34_178 vgnd vpwr scs8hd_decap_12
XFILLER_19_164 vpwr vgnd scs8hd_fill_2
Xmem_bottom_track_1.LATCH_2_.latch data_in mem_bottom_track_1.LATCH_2_.latch/Q _132_/Y
+ vgnd vpwr scs8hd_lpflow_inputisolatch_1
Xmux_right_track_14.mux_l2_in_0_.TGATE_1_.scs8hd_ebufn_2 _192_/HI _185_/Y mux_right_track_14.tap_buf4_0_.scs8hd_inv_1/A
+ vgnd vpwr scs8hd_ebufn_2
XANTENNA_mem_bottom_track_9.LATCH_0_.latch_D data_in vgnd vpwr scs8hd_diode_2
XANTENNA_mux_bottom_track_17.INVTX1_0_.scs8hd_inv_1_A chany_top_in[2] vgnd vpwr scs8hd_diode_2
XANTENNA_mem_top_track_8.LATCH_3_.latch_SLEEPB _110_/Y vgnd vpwr scs8hd_diode_2
XANTENNA_mux_right_track_4.mux_l1_in_0_.TGATE_1_.scs8hd_ebufn_2_A mux_right_track_4.INVTX1_1_.scs8hd_inv_1/Y
+ vgnd vpwr scs8hd_diode_2
XFILLER_0_200 vpwr vgnd scs8hd_fill_2
XFILLER_16_189 vpwr vgnd scs8hd_fill_2
XFILLER_16_167 vgnd vpwr scs8hd_decap_6
XFILLER_16_145 vgnd vpwr scs8hd_decap_6
XPHY_140 vgnd vpwr scs8hd_tapvpwrvgnd_1
XPHY_151 vgnd vpwr scs8hd_tapvpwrvgnd_1
XPHY_162 vgnd vpwr scs8hd_tapvpwrvgnd_1
XPHY_173 vgnd vpwr scs8hd_tapvpwrvgnd_1
XPHY_184 vgnd vpwr scs8hd_tapvpwrvgnd_1
XPHY_195 vgnd vpwr scs8hd_tapvpwrvgnd_1
XFILLER_31_159 vgnd vpwr scs8hd_decap_4
XFILLER_39_259 vpwr vgnd scs8hd_fill_2
XFILLER_11_3 vgnd vpwr scs8hd_decap_12
XFILLER_22_148 vgnd vpwr scs8hd_fill_1
XFILLER_22_126 vgnd vpwr scs8hd_decap_4
XANTENNA_mux_top_track_16.mux_l1_in_1_.TGATE_2_.scs8hd_ebufn_2_A mux_top_track_16.INVTX1_5_.scs8hd_inv_1/Y
+ vgnd vpwr scs8hd_diode_2
XFILLER_7_91 vpwr vgnd scs8hd_fill_2
XFILLER_26_56 vgnd vpwr scs8hd_decap_12
XANTENNA_mux_top_track_0.mux_l1_in_2_.TGATE_0_.scs8hd_ebufn_2_A mux_top_track_0.INVTX1_6_.scs8hd_inv_1/Y
+ vgnd vpwr scs8hd_diode_2
XFILLER_42_44 vgnd vpwr scs8hd_decap_12
XFILLER_21_192 vgnd vpwr scs8hd_decap_3
XANTENNA_mux_top_track_0.mux_l1_in_2_.TGATE_0_.scs8hd_ebufn_2_TEB mem_top_track_0.LATCH_0_.latch/Q
+ vgnd vpwr scs8hd_diode_2
XFILLER_29_270 vgnd vpwr scs8hd_decap_6
XFILLER_3_49 vgnd vpwr scs8hd_fill_1
Xmux_bottom_track_17.mux_l1_in_1_.TGATE_1_.scs8hd_ebufn_2 mux_bottom_track_17.INVTX1_4_.scs8hd_inv_1/Y
+ mem_bottom_track_17.LATCH_1_.latch/Q mux_bottom_track_17.mux_l1_in_1_.TGATE_1_.scs8hd_ebufn_2/Z
+ vgnd vpwr scs8hd_ebufn_2
Xmux_right_track_4.mux_l1_in_0_.TGATE_0_.scs8hd_ebufn_2 mux_right_track_4.INVTX1_0_.scs8hd_inv_1/Y
+ _176_/A mux_right_track_4.mux_l1_in_0_.TGATE_1_.scs8hd_ebufn_2/Z vgnd vpwr scs8hd_ebufn_2
XFILLER_8_152 vgnd vpwr scs8hd_fill_1
XANTENNA__170__A _160_/A vgnd vpwr scs8hd_diode_2
XANTENNA_mem_bottom_track_17.LATCH_3_.latch_D data_in vgnd vpwr scs8hd_diode_2
XANTENNA__080__A enable vgnd vpwr scs8hd_diode_2
XANTENNA_mem_top_track_16.LATCH_4_.latch_D data_in vgnd vpwr scs8hd_diode_2
XFILLER_41_232 vgnd vpwr scs8hd_decap_12
XFILLER_26_262 vgnd vpwr scs8hd_decap_12
XFILLER_41_276 vgnd vpwr scs8hd_fill_1
XFILLER_5_155 vpwr vgnd scs8hd_fill_2
Xmux_right_track_10.mux_l1_in_1_.TGATE_1_.scs8hd_ebufn_2 _190_/HI _180_/Y mux_right_track_10.mux_l2_in_0_.TGATE_1_.scs8hd_ebufn_2/A
+ vgnd vpwr scs8hd_ebufn_2
XFILLER_5_188 vgnd vpwr scs8hd_fill_1
XANTENNA__149__B _149_/B vgnd vpwr scs8hd_diode_2
XANTENNA__165__A _163_/A vgnd vpwr scs8hd_diode_2
XFILLER_32_243 vgnd vpwr scs8hd_fill_1
XFILLER_32_276 vgnd vpwr scs8hd_fill_1
XANTENNA__075__A address[2] vgnd vpwr scs8hd_diode_2
XANTENNA_mem_top_track_8.LATCH_0_.latch_D data_in vgnd vpwr scs8hd_diode_2
Xmux_right_track_12.INVTX1_0_.scs8hd_inv_1 chany_top_in[6] mux_right_track_12.INVTX1_0_.scs8hd_inv_1/Y
+ vgnd vpwr scs8hd_inv_1
XFILLER_2_169 vgnd vpwr scs8hd_decap_8
XFILLER_2_158 vpwr vgnd scs8hd_fill_2
XFILLER_14_276 vgnd vpwr scs8hd_fill_1
XFILLER_14_232 vgnd vpwr scs8hd_decap_3
XFILLER_9_15 vgnd vpwr scs8hd_decap_12
X_187_ _187_/HI _187_/LO vgnd vpwr scs8hd_conb_1
Xmux_bottom_track_9.INVTX1_3_.scs8hd_inv_1 chanx_right_in[3] mux_bottom_track_9.INVTX1_3_.scs8hd_inv_1/Y
+ vgnd vpwr scs8hd_inv_1
Xmux_right_track_8.mux_l1_in_0_.TGATE_1_.scs8hd_ebufn_2 mux_right_track_8.INVTX1_1_.scs8hd_inv_1/Y
+ _184_/Y mux_right_track_8.mux_l1_in_0_.TGATE_1_.scs8hd_ebufn_2/Z vgnd vpwr scs8hd_ebufn_2
X_110_ _110_/A _110_/B _110_/Y vgnd vpwr scs8hd_nor2_4
XFILLER_34_56 vgnd vpwr scs8hd_decap_12
XFILLER_11_235 vgnd vpwr scs8hd_decap_3
XFILLER_7_217 vpwr vgnd scs8hd_fill_2
XANTENNA_mux_right_track_10.mux_l2_in_0_.TGATE_1_.scs8hd_ebufn_2_TEB _179_/Y vgnd
+ vpwr scs8hd_diode_2
XANTENNA__146__C _162_/C vgnd vpwr scs8hd_diode_2
XANTENNA__162__B _155_/X vgnd vpwr scs8hd_diode_2
XFILLER_41_3 vgnd vpwr scs8hd_decap_12
XFILLER_6_272 vgnd vpwr scs8hd_decap_3
Xmux_top_track_16.INVTX1_4_.scs8hd_inv_1 chanx_right_in[3] mux_top_track_16.INVTX1_4_.scs8hd_inv_1/Y
+ vgnd vpwr scs8hd_inv_1
XFILLER_37_110 vgnd vpwr scs8hd_decap_12
XFILLER_1_60 vgnd vpwr scs8hd_fill_1
XANTENNA_mux_top_track_8.mux_l1_in_1_.TGATE_1_.scs8hd_ebufn_2_A mux_top_track_8.INVTX1_4_.scs8hd_inv_1/Y
+ vgnd vpwr scs8hd_diode_2
XANTENNA_mux_top_track_16.tap_buf4_0_.scs8hd_inv_1_A mux_top_track_16.tap_buf4_0_.scs8hd_inv_1/A
+ vgnd vpwr scs8hd_diode_2
XFILLER_28_154 vgnd vpwr scs8hd_decap_6
XFILLER_10_91 vgnd vpwr scs8hd_fill_1
XANTENNA__157__B _155_/X vgnd vpwr scs8hd_diode_2
XANTENNA__173__A _173_/A vgnd vpwr scs8hd_diode_2
XFILLER_25_135 vpwr vgnd scs8hd_fill_2
Xmux_right_track_12.mux_l1_in_0_.TGATE_0_.scs8hd_ebufn_2 mux_right_track_12.INVTX1_0_.scs8hd_inv_1/Y
+ _182_/A mux_right_track_12.mux_l2_in_0_.TGATE_0_.scs8hd_ebufn_2/A vgnd vpwr scs8hd_ebufn_2
XANTENNA__083__A _106_/A vgnd vpwr scs8hd_diode_2
XFILLER_40_105 vgnd vpwr scs8hd_decap_12
XFILLER_25_179 vpwr vgnd scs8hd_fill_2
Xmux_top_track_16.mux_l1_in_1_.TGATE_0_.scs8hd_ebufn_2 mux_top_track_16.INVTX1_3_.scs8hd_inv_1/Y
+ mem_top_track_16.LATCH_0_.latch/Q mux_top_track_16.mux_l2_in_0_.TGATE_1_.scs8hd_ebufn_2/A
+ vgnd vpwr scs8hd_ebufn_2
XPHY_130 vgnd vpwr scs8hd_tapvpwrvgnd_1
XPHY_141 vgnd vpwr scs8hd_tapvpwrvgnd_1
XPHY_152 vgnd vpwr scs8hd_tapvpwrvgnd_1
XFILLER_16_102 vpwr vgnd scs8hd_fill_2
XPHY_163 vgnd vpwr scs8hd_tapvpwrvgnd_1
XPHY_174 vgnd vpwr scs8hd_tapvpwrvgnd_1
XPHY_185 vgnd vpwr scs8hd_tapvpwrvgnd_1
XPHY_196 vgnd vpwr scs8hd_tapvpwrvgnd_1
XANTENNA_mux_bottom_track_1.mux_l2_in_0_.TGATE_1_.scs8hd_ebufn_2_TEB mem_bottom_track_1.LATCH_4_.latch/Q
+ vgnd vpwr scs8hd_diode_2
XANTENNA__168__A _157_/A vgnd vpwr scs8hd_diode_2
XFILLER_30_182 vgnd vpwr scs8hd_decap_4
Xmux_top_track_0.INVTX1_0_.scs8hd_inv_1 top_left_grid_pin_1_ mux_top_track_0.INVTX1_0_.scs8hd_inv_1/Y
+ vgnd vpwr scs8hd_inv_1
XANTENNA__078__A _077_/X vgnd vpwr scs8hd_diode_2
XFILLER_38_271 vgnd vpwr scs8hd_decap_4
XFILLER_26_68 vgnd vpwr scs8hd_decap_6
XFILLER_13_138 vpwr vgnd scs8hd_fill_2
XFILLER_42_56 vgnd vpwr scs8hd_decap_6
XANTENNA__170__B _155_/A vgnd vpwr scs8hd_diode_2
XANTENNA_mux_right_track_14.mux_l2_in_0_.TGATE_0_.scs8hd_ebufn_2_A mux_right_track_14.mux_l2_in_0_.TGATE_0_.scs8hd_ebufn_2/A
+ vgnd vpwr scs8hd_diode_2
XANTENNA_mux_top_track_16.INVTX1_2_.scs8hd_inv_1_A top_right_grid_pin_11_ vgnd vpwr
+ scs8hd_diode_2
XFILLER_35_263 vgnd vpwr scs8hd_decap_12
XFILLER_12_15 vgnd vpwr scs8hd_decap_12