* NGSPICE file created from sb_0__0_.ext - technology: EFS8A

* Black-box entry subcircuit for scs8hd_lpflow_inputisolatch_1 abstract view
.subckt scs8hd_lpflow_inputisolatch_1 D Q SLEEPB vgnd vpwr
.ends

* Black-box entry subcircuit for scs8hd_decap_4 abstract view
.subckt scs8hd_decap_4 vgnd vpwr
.ends

* Black-box entry subcircuit for scs8hd_fill_2 abstract view
.subckt scs8hd_fill_2 vpwr vgnd
.ends

* Black-box entry subcircuit for scs8hd_diode_2 abstract view
.subckt scs8hd_diode_2 DIODE vgnd vpwr
.ends

* Black-box entry subcircuit for scs8hd_decap_12 abstract view
.subckt scs8hd_decap_12 vgnd vpwr
.ends

* Black-box entry subcircuit for scs8hd_inv_1 abstract view
.subckt scs8hd_inv_1 A Y vgnd vpwr
.ends

* Black-box entry subcircuit for scs8hd_fill_1 abstract view
.subckt scs8hd_fill_1 vgnd vpwr
.ends

* Black-box entry subcircuit for scs8hd_ebufn_2 abstract view
.subckt scs8hd_ebufn_2 A TEB Z vgnd vpwr
.ends

* Black-box entry subcircuit for scs8hd_decap_8 abstract view
.subckt scs8hd_decap_8 vgnd vpwr
.ends

* Black-box entry subcircuit for scs8hd_decap_3 abstract view
.subckt scs8hd_decap_3 vgnd vpwr
.ends

* Black-box entry subcircuit for scs8hd_inv_8 abstract view
.subckt scs8hd_inv_8 A Y vgnd vpwr
.ends

* Black-box entry subcircuit for scs8hd_nor2_4 abstract view
.subckt scs8hd_nor2_4 A B Y vgnd vpwr
.ends

* Black-box entry subcircuit for scs8hd_buf_1 abstract view
.subckt scs8hd_buf_1 A X vgnd vpwr
.ends

* Black-box entry subcircuit for scs8hd_decap_6 abstract view
.subckt scs8hd_decap_6 vgnd vpwr
.ends

* Black-box entry subcircuit for scs8hd_tapvpwrvgnd_1 abstract view
.subckt scs8hd_tapvpwrvgnd_1 vgnd vpwr
.ends

* Black-box entry subcircuit for scs8hd_or4_4 abstract view
.subckt scs8hd_or4_4 A B C D X vgnd vpwr
.ends

* Black-box entry subcircuit for scs8hd_buf_2 abstract view
.subckt scs8hd_buf_2 A X vgnd vpwr
.ends

* Black-box entry subcircuit for scs8hd_nor3_4 abstract view
.subckt scs8hd_nor3_4 A B C Y vgnd vpwr
.ends

* Black-box entry subcircuit for scs8hd_or2_4 abstract view
.subckt scs8hd_or2_4 A B X vgnd vpwr
.ends

* Black-box entry subcircuit for scs8hd_conb_1 abstract view
.subckt scs8hd_conb_1 HI LO vgnd vpwr
.ends

* Black-box entry subcircuit for scs8hd_nand2_4 abstract view
.subckt scs8hd_nand2_4 A B Y vgnd vpwr
.ends

.subckt sb_0__0_ address[0] address[1] address[2] address[3] address[4] address[5]
+ chanx_right_in[0] chanx_right_in[1] chanx_right_in[2] chanx_right_in[3] chanx_right_in[4]
+ chanx_right_in[5] chanx_right_in[6] chanx_right_in[7] chanx_right_in[8] chanx_right_out[0]
+ chanx_right_out[1] chanx_right_out[2] chanx_right_out[3] chanx_right_out[4] chanx_right_out[5]
+ chanx_right_out[6] chanx_right_out[7] chanx_right_out[8] chany_top_in[0] chany_top_in[1]
+ chany_top_in[2] chany_top_in[3] chany_top_in[4] chany_top_in[5] chany_top_in[6]
+ chany_top_in[7] chany_top_in[8] chany_top_out[0] chany_top_out[1] chany_top_out[2]
+ chany_top_out[3] chany_top_out[4] chany_top_out[5] chany_top_out[6] chany_top_out[7]
+ chany_top_out[8] data_in enable right_bottom_grid_pin_11_ right_bottom_grid_pin_13_
+ right_bottom_grid_pin_15_ right_bottom_grid_pin_1_ right_bottom_grid_pin_3_ right_bottom_grid_pin_5_
+ right_bottom_grid_pin_7_ right_bottom_grid_pin_9_ right_top_grid_pin_10_ top_left_grid_pin_11_
+ top_left_grid_pin_13_ top_left_grid_pin_15_ top_left_grid_pin_1_ top_left_grid_pin_3_
+ top_left_grid_pin_5_ top_left_grid_pin_7_ top_left_grid_pin_9_ top_right_grid_pin_11_
+ vpwr vgnd
Xmem_right_track_12.LATCH_1_.latch data_in _202_/A _164_/Y vgnd vpwr scs8hd_lpflow_inputisolatch_1
XFILLER_39_211 vgnd vpwr scs8hd_decap_4
XFILLER_39_266 vpwr vgnd scs8hd_fill_2
XANTENNA_mem_top_track_2.LATCH_1_.latch_SLEEPB _111_/Y vgnd vpwr scs8hd_diode_2
XFILLER_13_188 vpwr vgnd scs8hd_fill_2
XFILLER_36_247 vpwr vgnd scs8hd_fill_2
XFILLER_36_258 vgnd vpwr scs8hd_decap_12
Xmux_top_track_8.INVTX1_0_.scs8hd_inv_1 top_left_grid_pin_9_ mux_top_track_8.INVTX1_0_.scs8hd_inv_1/Y
+ vgnd vpwr scs8hd_inv_1
XFILLER_8_192 vgnd vpwr scs8hd_decap_4
XFILLER_27_258 vgnd vpwr scs8hd_decap_4
XFILLER_27_236 vpwr vgnd scs8hd_fill_2
XFILLER_12_32 vgnd vpwr scs8hd_decap_12
XFILLER_10_158 vgnd vpwr scs8hd_fill_1
XFILLER_6_129 vgnd vpwr scs8hd_decap_12
Xmux_right_track_12.mux_l2_in_0_.TGATE_0_.scs8hd_ebufn_2 mux_right_track_12.mux_l1_in_0_.TGATE_1_.scs8hd_ebufn_2/Z
+ _202_/A mux_right_track_12.tap_buf4_0_.scs8hd_inv_1/A vgnd vpwr scs8hd_ebufn_2
XANTENNA_mem_top_track_16.LATCH_0_.latch_SLEEPB _142_/Y vgnd vpwr scs8hd_diode_2
XFILLER_37_51 vgnd vpwr scs8hd_decap_8
XFILLER_37_62 vgnd vpwr scs8hd_decap_12
XFILLER_37_84 vgnd vpwr scs8hd_fill_1
XANTENNA__108__B enable vgnd vpwr scs8hd_diode_2
XFILLER_33_228 vgnd vpwr scs8hd_decap_3
XANTENNA__124__A _119_/A vgnd vpwr scs8hd_diode_2
XFILLER_5_184 vpwr vgnd scs8hd_fill_2
XANTENNA_mux_right_track_4.tap_buf4_0_.scs8hd_inv_1_A mux_right_track_4.tap_buf4_0_.scs8hd_inv_1/A
+ vgnd vpwr scs8hd_diode_2
X_200_ _200_/A _200_/Y vgnd vpwr scs8hd_inv_8
XFILLER_15_239 vpwr vgnd scs8hd_fill_2
XFILLER_15_217 vpwr vgnd scs8hd_fill_2
X_131_ _129_/X _130_/X _131_/Y vgnd vpwr scs8hd_nor2_4
XFILLER_2_154 vgnd vpwr scs8hd_decap_12
XANTENNA__110__C _123_/C vgnd vpwr scs8hd_diode_2
XANTENNA__119__A _119_/A vgnd vpwr scs8hd_diode_2
XFILLER_14_261 vgnd vpwr scs8hd_decap_12
XANTENNA_mem_top_track_16.LATCH_1_.latch_D data_in vgnd vpwr scs8hd_diode_2
XFILLER_18_97 vgnd vpwr scs8hd_fill_1
X_114_ _163_/B _114_/X vgnd vpwr scs8hd_buf_1
XFILLER_7_235 vgnd vpwr scs8hd_decap_6
Xmux_right_track_16.mux_l2_in_0_.TGATE_1_.scs8hd_ebufn_2 _212_/HI _206_/Y mux_right_track_16.tap_buf4_0_.scs8hd_inv_1/A
+ vgnd vpwr scs8hd_ebufn_2
Xmux_top_track_0.mux_l2_in_0_.TGATE_1_.scs8hd_ebufn_2 _217_/HI _172_/Y mux_top_track_0.tap_buf4_0_.scs8hd_inv_1/A
+ vgnd vpwr scs8hd_ebufn_2
XANTENNA_mem_top_track_6.LATCH_1_.latch_D data_in vgnd vpwr scs8hd_diode_2
XFILLER_20_32 vgnd vpwr scs8hd_decap_12
XFILLER_4_227 vgnd vpwr scs8hd_decap_12
XFILLER_29_74 vgnd vpwr scs8hd_decap_6
XFILLER_35_109 vpwr vgnd scs8hd_fill_2
XFILLER_28_150 vgnd vpwr scs8hd_decap_3
XANTENNA__116__B _116_/B vgnd vpwr scs8hd_diode_2
XANTENNA__132__A address[0] vgnd vpwr scs8hd_diode_2
XFILLER_6_56 vgnd vpwr scs8hd_decap_12
XANTENNA_mem_top_track_14.LATCH_1_.latch_SLEEPB _135_/Y vgnd vpwr scs8hd_diode_2
XFILLER_13_3 vgnd vpwr scs8hd_decap_12
Xmem_right_track_8.LATCH_1_.latch data_in _198_/A _158_/Y vgnd vpwr scs8hd_lpflow_inputisolatch_1
XFILLER_34_120 vgnd vpwr scs8hd_decap_6
XFILLER_1_208 vgnd vpwr scs8hd_decap_12
XFILLER_40_101 vgnd vpwr scs8hd_fill_1
XFILLER_25_175 vpwr vgnd scs8hd_fill_2
XFILLER_25_197 vpwr vgnd scs8hd_fill_2
XFILLER_15_98 vgnd vpwr scs8hd_fill_1
Xmux_right_track_6.mux_l1_in_0_.TGATE_0_.scs8hd_ebufn_2 mux_right_track_6.INVTX1_0_.scs8hd_inv_1/Y
+ _197_/A mux_right_track_6.mux_l1_in_0_.TGATE_1_.scs8hd_ebufn_2/Z vgnd vpwr scs8hd_ebufn_2
XFILLER_0_230 vgnd vpwr scs8hd_decap_12
XFILLER_0_274 vgnd vpwr scs8hd_decap_3
XPHY_170 vgnd vpwr scs8hd_tapvpwrvgnd_1
XANTENNA__127__A _119_/A vgnd vpwr scs8hd_diode_2
XFILLER_31_156 vpwr vgnd scs8hd_fill_2
XFILLER_31_167 vgnd vpwr scs8hd_decap_4
XFILLER_31_123 vpwr vgnd scs8hd_fill_2
XFILLER_16_120 vgnd vpwr scs8hd_decap_3
XPHY_181 vgnd vpwr scs8hd_tapvpwrvgnd_1
XPHY_192 vgnd vpwr scs8hd_tapvpwrvgnd_1
XANTENNA_mux_right_track_10.mux_l1_in_0_.TGATE_1_.scs8hd_ebufn_2_TEB _201_/Y vgnd
+ vpwr scs8hd_diode_2
XFILLER_39_223 vpwr vgnd scs8hd_fill_2
XFILLER_22_101 vgnd vpwr scs8hd_decap_6
Xmem_top_track_4.LATCH_0_.latch data_in _177_/A _117_/Y vgnd vpwr scs8hd_lpflow_inputisolatch_1
XFILLER_13_123 vgnd vpwr scs8hd_decap_4
XFILLER_42_63 vgnd vpwr scs8hd_decap_12
XFILLER_36_215 vgnd vpwr scs8hd_decap_8
XFILLER_36_226 vpwr vgnd scs8hd_fill_2
XANTENNA_mux_right_track_12.mux_l2_in_0_.TGATE_0_.scs8hd_ebufn_2_A mux_right_track_12.mux_l1_in_0_.TGATE_1_.scs8hd_ebufn_2/Z
+ vgnd vpwr scs8hd_diode_2
XFILLER_8_171 vgnd vpwr scs8hd_decap_6
XFILLER_42_218 vgnd vpwr scs8hd_decap_12
XFILLER_12_44 vgnd vpwr scs8hd_decap_12
XANTENNA__230__A _230_/A vgnd vpwr scs8hd_diode_2
XFILLER_37_74 vgnd vpwr scs8hd_decap_4
XFILLER_37_96 vpwr vgnd scs8hd_fill_2
XFILLER_18_215 vpwr vgnd scs8hd_fill_2
XFILLER_41_262 vpwr vgnd scs8hd_fill_2
XANTENNA__124__B _125_/B vgnd vpwr scs8hd_diode_2
XANTENNA__140__A _110_/A vgnd vpwr scs8hd_diode_2
XANTENNA_mux_top_track_0.INVTX1_0_.scs8hd_inv_1_A top_left_grid_pin_1_ vgnd vpwr scs8hd_diode_2
XFILLER_32_240 vgnd vpwr scs8hd_fill_1
XFILLER_24_229 vgnd vpwr scs8hd_decap_3
XFILLER_24_207 vgnd vpwr scs8hd_decap_6
Xmux_top_track_6.INVTX1_0_.scs8hd_inv_1 top_left_grid_pin_7_ mux_top_track_6.INVTX1_0_.scs8hd_inv_1/Y
+ vgnd vpwr scs8hd_inv_1
X_130_ _126_/A _114_/X _134_/C _169_/A _130_/X vgnd vpwr scs8hd_or4_4
XANTENNA_mux_top_track_4.INVTX1_1_.scs8hd_inv_1_A chanx_right_in[3] vgnd vpwr scs8hd_diode_2
XFILLER_23_240 vpwr vgnd scs8hd_fill_2
XANTENNA__110__D _170_/A vgnd vpwr scs8hd_diode_2
XFILLER_2_166 vgnd vpwr scs8hd_decap_12
XANTENNA__119__B _119_/B vgnd vpwr scs8hd_diode_2
XFILLER_14_240 vgnd vpwr scs8hd_decap_8
XANTENNA__135__A _129_/X vgnd vpwr scs8hd_diode_2
XFILLER_14_273 vpwr vgnd scs8hd_fill_2
XANTENNA_mem_right_track_2.LATCH_0_.latch_D data_in vgnd vpwr scs8hd_diode_2
XFILLER_20_276 vgnd vpwr scs8hd_fill_1
XFILLER_20_243 vpwr vgnd scs8hd_fill_2
XFILLER_18_32 vgnd vpwr scs8hd_decap_12
X_113_ address[2] _163_/B vgnd vpwr scs8hd_inv_8
XFILLER_11_221 vpwr vgnd scs8hd_fill_2
XFILLER_7_269 vgnd vpwr scs8hd_decap_8
XFILLER_7_258 vgnd vpwr scs8hd_decap_4
XANTENNA_mux_right_track_12.mux_l1_in_0_.TGATE_0_.scs8hd_ebufn_2_TEB _203_/A vgnd
+ vpwr scs8hd_diode_2
Xmux_right_track_14.mux_l1_in_0_.TGATE_0_.scs8hd_ebufn_2 mux_right_track_14.INVTX1_0_.scs8hd_inv_1/Y
+ _205_/A mux_right_track_14.mux_l1_in_0_.TGATE_1_.scs8hd_ebufn_2/Z vgnd vpwr scs8hd_ebufn_2
Xmux_top_track_6.tap_buf4_0_.scs8hd_inv_1 mux_top_track_6.tap_buf4_0_.scs8hd_inv_1/A
+ _240_/A vgnd vpwr scs8hd_inv_1
XFILLER_20_44 vgnd vpwr scs8hd_decap_12
XFILLER_4_239 vgnd vpwr scs8hd_decap_12
XFILLER_28_184 vpwr vgnd scs8hd_fill_2
XFILLER_6_68 vgnd vpwr scs8hd_decap_12
XANTENNA_mem_right_track_16.LATCH_0_.latch_SLEEPB _171_/Y vgnd vpwr scs8hd_diode_2
XFILLER_34_165 vpwr vgnd scs8hd_fill_2
XANTENNA_mux_top_track_16.mux_l1_in_0_.TGATE_1_.scs8hd_ebufn_2_TEB _189_/Y vgnd vpwr
+ scs8hd_diode_2
XFILLER_40_124 vgnd vpwr scs8hd_decap_3
XFILLER_0_242 vgnd vpwr scs8hd_decap_6
XANTENNA__233__A _233_/A vgnd vpwr scs8hd_diode_2
Xmux_right_track_16.INVTX1_0_.scs8hd_inv_1 chany_top_in[7] mux_right_track_16.INVTX1_0_.scs8hd_inv_1/Y
+ vgnd vpwr scs8hd_inv_1
XPHY_160 vgnd vpwr scs8hd_tapvpwrvgnd_1
XPHY_171 vgnd vpwr scs8hd_tapvpwrvgnd_1
XPHY_182 vgnd vpwr scs8hd_tapvpwrvgnd_1
XPHY_193 vgnd vpwr scs8hd_tapvpwrvgnd_1
XANTENNA__127__B _127_/B vgnd vpwr scs8hd_diode_2
XFILLER_31_135 vgnd vpwr scs8hd_fill_1
XFILLER_16_143 vpwr vgnd scs8hd_fill_2
XANTENNA__143__A _110_/A vgnd vpwr scs8hd_diode_2
XFILLER_39_235 vgnd vpwr scs8hd_decap_3
XFILLER_22_168 vgnd vpwr scs8hd_decap_4
XFILLER_22_146 vgnd vpwr scs8hd_decap_4
XANTENNA_mux_right_track_2.mux_l2_in_0_.TGATE_1_.scs8hd_ebufn_2_TEB _192_/Y vgnd vpwr
+ scs8hd_diode_2
Xmux_top_track_2.mux_l1_in_0_.TGATE_1_.scs8hd_ebufn_2 mux_top_track_2.INVTX1_1_.scs8hd_inv_1/Y
+ _175_/Y mux_top_track_2.mux_l2_in_0_.TGATE_0_.scs8hd_ebufn_2/A vgnd vpwr scs8hd_ebufn_2
XFILLER_26_32 vgnd vpwr scs8hd_decap_12
XFILLER_13_146 vpwr vgnd scs8hd_fill_2
XANTENNA__228__A _228_/A vgnd vpwr scs8hd_diode_2
XFILLER_42_75 vgnd vpwr scs8hd_decap_12
XANTENNA__138__A address[4] vgnd vpwr scs8hd_diode_2
XFILLER_8_161 vgnd vpwr scs8hd_fill_1
XFILLER_27_227 vgnd vpwr scs8hd_fill_1
XFILLER_10_105 vgnd vpwr scs8hd_decap_12
XFILLER_12_56 vgnd vpwr scs8hd_decap_12
XFILLER_41_274 vgnd vpwr scs8hd_decap_3
XFILLER_41_241 vgnd vpwr scs8hd_decap_3
XANTENNA__140__B _123_/B vgnd vpwr scs8hd_diode_2
XFILLER_32_274 vgnd vpwr scs8hd_fill_1
XANTENNA_mem_right_track_14.LATCH_1_.latch_SLEEPB _168_/Y vgnd vpwr scs8hd_diode_2
XFILLER_3_3 vgnd vpwr scs8hd_decap_12
XANTENNA__241__A _241_/A vgnd vpwr scs8hd_diode_2
XFILLER_2_178 vgnd vpwr scs8hd_decap_12
XFILLER_0_15 vgnd vpwr scs8hd_decap_12
X_189_ _189_/A _189_/Y vgnd vpwr scs8hd_inv_8
XANTENNA_mux_right_track_12.INVTX1_1_.scs8hd_inv_1_A right_bottom_grid_pin_11_ vgnd
+ vpwr scs8hd_diode_2
XANTENNA__135__B _134_/X vgnd vpwr scs8hd_diode_2
XANTENNA__151__A _151_/A vgnd vpwr scs8hd_diode_2
XFILLER_36_3 vgnd vpwr scs8hd_decap_12
XANTENNA_mux_top_track_2.mux_l1_in_0_.TGATE_1_.scs8hd_ebufn_2_TEB _175_/Y vgnd vpwr
+ scs8hd_diode_2
XFILLER_18_44 vgnd vpwr scs8hd_decap_12
XFILLER_34_32 vgnd vpwr scs8hd_decap_12
X_112_ _125_/A _112_/B _112_/Y vgnd vpwr scs8hd_nor2_4
XANTENNA__236__A _236_/A vgnd vpwr scs8hd_diode_2
Xmux_top_track_4.INVTX1_0_.scs8hd_inv_1 top_left_grid_pin_5_ mux_top_track_4.INVTX1_0_.scs8hd_inv_1/Y
+ vgnd vpwr scs8hd_inv_1
XANTENNA__146__A address[3] vgnd vpwr scs8hd_diode_2
XFILLER_6_270 vgnd vpwr scs8hd_decap_4
XFILLER_29_119 vgnd vpwr scs8hd_decap_3
XANTENNA_mux_right_track_4.mux_l2_in_0_.TGATE_0_.scs8hd_ebufn_2_TEB _194_/A vgnd vpwr
+ scs8hd_diode_2
XFILLER_37_130 vpwr vgnd scs8hd_fill_2
XFILLER_37_152 vpwr vgnd scs8hd_fill_2
Xmux_right_track_2.mux_l2_in_0_.TGATE_0_.scs8hd_ebufn_2 mux_right_track_2.mux_l1_in_0_.TGATE_1_.scs8hd_ebufn_2/Z
+ _192_/A mux_right_track_2.tap_buf4_0_.scs8hd_inv_1/A vgnd vpwr scs8hd_ebufn_2
XFILLER_20_56 vgnd vpwr scs8hd_decap_12
XFILLER_28_163 vpwr vgnd scs8hd_fill_2
XFILLER_19_163 vgnd vpwr scs8hd_fill_1
XFILLER_25_133 vpwr vgnd scs8hd_fill_2
XFILLER_31_99 vgnd vpwr scs8hd_decap_4
XFILLER_16_133 vgnd vpwr scs8hd_fill_1
XPHY_150 vgnd vpwr scs8hd_tapvpwrvgnd_1
XPHY_161 vgnd vpwr scs8hd_tapvpwrvgnd_1
XPHY_172 vgnd vpwr scs8hd_tapvpwrvgnd_1
XPHY_183 vgnd vpwr scs8hd_tapvpwrvgnd_1
XPHY_194 vgnd vpwr scs8hd_tapvpwrvgnd_1
XFILLER_31_147 vgnd vpwr scs8hd_decap_3
XFILLER_31_114 vgnd vpwr scs8hd_decap_8
XFILLER_16_199 vgnd vpwr scs8hd_decap_4
XANTENNA__143__B _123_/B vgnd vpwr scs8hd_diode_2
XANTENNA_mux_right_track_4.INVTX1_0_.scs8hd_inv_1_A chany_top_in[1] vgnd vpwr scs8hd_diode_2
XFILLER_22_125 vpwr vgnd scs8hd_fill_2
XANTENNA_mux_top_track_12.mux_l2_in_0_.TGATE_0_.scs8hd_ebufn_2_A mux_top_track_12.mux_l1_in_0_.TGATE_0_.scs8hd_ebufn_2/Z
+ vgnd vpwr scs8hd_diode_2
Xmem_right_track_4.LATCH_1_.latch data_in _194_/A _150_/Y vgnd vpwr scs8hd_lpflow_inputisolatch_1
XANTENNA_mem_right_track_2.LATCH_0_.latch_SLEEPB _148_/Y vgnd vpwr scs8hd_diode_2
XFILLER_26_44 vgnd vpwr scs8hd_decap_12
XFILLER_42_87 vgnd vpwr scs8hd_decap_6
XFILLER_42_32 vgnd vpwr scs8hd_decap_12
Xmux_right_track_6.mux_l2_in_0_.TGATE_1_.scs8hd_ebufn_2 _215_/HI _196_/Y mux_right_track_6.tap_buf4_0_.scs8hd_inv_1/A
+ vgnd vpwr scs8hd_ebufn_2
XANTENNA_mux_right_track_8.INVTX1_1_.scs8hd_inv_1_A right_bottom_grid_pin_7_ vgnd
+ vpwr scs8hd_diode_2
XFILLER_36_206 vpwr vgnd scs8hd_fill_2
XFILLER_3_59 vpwr vgnd scs8hd_fill_2
XFILLER_3_15 vgnd vpwr scs8hd_decap_12
XANTENNA__138__B _137_/Y vgnd vpwr scs8hd_diode_2
XANTENNA__154__A _164_/A vgnd vpwr scs8hd_diode_2
XFILLER_8_151 vpwr vgnd scs8hd_fill_2
XANTENNA_mux_top_track_4.mux_l1_in_0_.TGATE_0_.scs8hd_ebufn_2_TEB _177_/A vgnd vpwr
+ scs8hd_diode_2
Xmux_right_track_14.INVTX1_0_.scs8hd_inv_1 chany_top_in[6] mux_right_track_14.INVTX1_0_.scs8hd_inv_1/Y
+ vgnd vpwr scs8hd_inv_1
XFILLER_27_206 vpwr vgnd scs8hd_fill_2
XFILLER_10_117 vgnd vpwr scs8hd_decap_12
XFILLER_12_68 vgnd vpwr scs8hd_decap_12
XFILLER_18_206 vgnd vpwr scs8hd_decap_8
XANTENNA_mux_top_track_8.mux_l2_in_0_.TGATE_1_.scs8hd_ebufn_2_A _225_/HI vgnd vpwr
+ scs8hd_diode_2
XFILLER_26_261 vgnd vpwr scs8hd_decap_12
XFILLER_26_250 vpwr vgnd scs8hd_fill_2
XANTENNA__239__A _239_/A vgnd vpwr scs8hd_diode_2
XFILLER_41_253 vpwr vgnd scs8hd_fill_2
XFILLER_5_110 vgnd vpwr scs8hd_decap_12
Xmem_top_track_0.LATCH_0_.latch data_in _173_/A _107_/Y vgnd vpwr scs8hd_lpflow_inputisolatch_1
XANTENNA__140__C _153_/C vgnd vpwr scs8hd_diode_2
XANTENNA__149__A address[3] vgnd vpwr scs8hd_diode_2
XFILLER_4_80 vgnd vpwr scs8hd_decap_12
XFILLER_23_264 vgnd vpwr scs8hd_decap_12
XANTENNA_mux_top_track_4.mux_l1_in_0_.TGATE_1_.scs8hd_ebufn_2_A mux_top_track_4.INVTX1_1_.scs8hd_inv_1/Y
+ vgnd vpwr scs8hd_diode_2
XFILLER_0_27 vgnd vpwr scs8hd_decap_4
X_188_ _188_/A _188_/Y vgnd vpwr scs8hd_inv_8
Xmux_right_track_10.mux_l2_in_0_.TGATE_0_.scs8hd_ebufn_2 mux_right_track_10.mux_l1_in_0_.TGATE_1_.scs8hd_ebufn_2/Z
+ _200_/A mux_right_track_10.tap_buf4_0_.scs8hd_inv_1/A vgnd vpwr scs8hd_ebufn_2
XANTENNA__151__B _151_/B vgnd vpwr scs8hd_diode_2
XFILLER_29_3 vgnd vpwr scs8hd_decap_12
XFILLER_18_56 vgnd vpwr scs8hd_decap_12
XFILLER_34_44 vgnd vpwr scs8hd_decap_12
X_111_ _119_/A _112_/B _111_/Y vgnd vpwr scs8hd_nor2_4
XANTENNA_mem_right_track_0.LATCH_1_.latch_SLEEPB _144_/Y vgnd vpwr scs8hd_diode_2
XFILLER_11_245 vpwr vgnd scs8hd_fill_2
XANTENNA__146__B _114_/X vgnd vpwr scs8hd_diode_2
XANTENNA__162__A _165_/A vgnd vpwr scs8hd_diode_2
XFILLER_37_175 vpwr vgnd scs8hd_fill_2
XFILLER_37_197 vpwr vgnd scs8hd_fill_2
XANTENNA_mem_right_track_14.LATCH_1_.latch_D data_in vgnd vpwr scs8hd_diode_2
XFILLER_20_68 vgnd vpwr scs8hd_decap_12
XANTENNA_mux_right_track_8.mux_l2_in_0_.TGATE_1_.scs8hd_ebufn_2_A _216_/HI vgnd vpwr
+ scs8hd_diode_2
XFILLER_6_15 vgnd vpwr scs8hd_decap_12
XANTENNA__157__A _126_/A vgnd vpwr scs8hd_diode_2
XFILLER_19_175 vpwr vgnd scs8hd_fill_2
XFILLER_19_142 vpwr vgnd scs8hd_fill_2
Xmux_top_track_2.INVTX1_0_.scs8hd_inv_1 top_left_grid_pin_3_ mux_top_track_2.INVTX1_0_.scs8hd_inv_1/Y
+ vgnd vpwr scs8hd_inv_1
Xmux_right_track_14.mux_l2_in_0_.TGATE_1_.scs8hd_ebufn_2 _211_/HI _204_/Y mux_right_track_14.tap_buf4_0_.scs8hd_inv_1/A
+ vgnd vpwr scs8hd_ebufn_2
XFILLER_25_123 vgnd vpwr scs8hd_fill_1
XFILLER_25_156 vgnd vpwr scs8hd_decap_4
XANTENNA_mux_right_track_4.mux_l1_in_0_.TGATE_1_.scs8hd_ebufn_2_A mux_right_track_4.INVTX1_1_.scs8hd_inv_1/Y
+ vgnd vpwr scs8hd_diode_2
XFILLER_0_211 vgnd vpwr scs8hd_decap_6
XPHY_140 vgnd vpwr scs8hd_tapvpwrvgnd_1
XPHY_151 vgnd vpwr scs8hd_tapvpwrvgnd_1
XPHY_162 vgnd vpwr scs8hd_tapvpwrvgnd_1
XPHY_173 vgnd vpwr scs8hd_tapvpwrvgnd_1
XPHY_184 vgnd vpwr scs8hd_tapvpwrvgnd_1
XPHY_195 vgnd vpwr scs8hd_tapvpwrvgnd_1
XANTENNA__143__C _153_/C vgnd vpwr scs8hd_diode_2
XFILLER_39_259 vgnd vpwr scs8hd_decap_3
XFILLER_11_3 vgnd vpwr scs8hd_decap_12
XFILLER_26_56 vgnd vpwr scs8hd_decap_12
XFILLER_42_44 vgnd vpwr scs8hd_decap_12
XFILLER_13_159 vpwr vgnd scs8hd_fill_2
XFILLER_3_27 vgnd vpwr scs8hd_decap_12
XFILLER_29_270 vgnd vpwr scs8hd_decap_6
Xmux_right_track_4.mux_l1_in_0_.TGATE_0_.scs8hd_ebufn_2 mux_right_track_4.INVTX1_0_.scs8hd_inv_1/Y
+ _195_/A mux_right_track_4.mux_l1_in_0_.TGATE_1_.scs8hd_ebufn_2/Z vgnd vpwr scs8hd_ebufn_2
XANTENNA__154__B _156_/B vgnd vpwr scs8hd_diode_2
XFILLER_8_196 vgnd vpwr scs8hd_fill_1
XFILLER_8_141 vgnd vpwr scs8hd_decap_8
XANTENNA__170__A _170_/A vgnd vpwr scs8hd_diode_2
XFILLER_10_129 vgnd vpwr scs8hd_decap_12
XFILLER_26_273 vpwr vgnd scs8hd_fill_2
XANTENNA__140__D _153_/D vgnd vpwr scs8hd_diode_2
XFILLER_5_188 vgnd vpwr scs8hd_decap_12
XANTENNA__149__B _114_/X vgnd vpwr scs8hd_diode_2
XANTENNA__165__A _165_/A vgnd vpwr scs8hd_diode_2
XFILLER_32_243 vgnd vpwr scs8hd_decap_3
XFILLER_32_276 vgnd vpwr scs8hd_fill_1
XFILLER_23_221 vgnd vpwr scs8hd_decap_4
XANTENNA_mem_top_track_8.LATCH_0_.latch_D data_in vgnd vpwr scs8hd_diode_2
XFILLER_23_276 vgnd vpwr scs8hd_fill_1
Xmux_right_track_12.INVTX1_0_.scs8hd_inv_1 chany_top_in[5] mux_right_track_12.INVTX1_0_.scs8hd_inv_1/Y
+ vgnd vpwr scs8hd_inv_1
XFILLER_14_276 vgnd vpwr scs8hd_fill_1
XFILLER_14_210 vgnd vpwr scs8hd_decap_4
XFILLER_9_59 vpwr vgnd scs8hd_fill_2
XFILLER_9_15 vgnd vpwr scs8hd_decap_12
X_187_ _187_/A _187_/Y vgnd vpwr scs8hd_inv_8
Xmux_right_track_8.mux_l1_in_0_.TGATE_1_.scs8hd_ebufn_2 mux_right_track_8.INVTX1_1_.scs8hd_inv_1/Y
+ _199_/Y mux_right_track_8.mux_l1_in_0_.TGATE_1_.scs8hd_ebufn_2/Z vgnd vpwr scs8hd_ebufn_2
XFILLER_18_68 vgnd vpwr scs8hd_decap_12
X_110_ _110_/A _123_/B _123_/C _170_/A _112_/B vgnd vpwr scs8hd_or4_4
XFILLER_34_56 vgnd vpwr scs8hd_decap_12
XANTENNA_mux_right_track_10.mux_l2_in_0_.TGATE_1_.scs8hd_ebufn_2_TEB _200_/Y vgnd
+ vpwr scs8hd_diode_2
X_239_ _239_/A chany_top_out[4] vgnd vpwr scs8hd_buf_2
XANTENNA__146__C _153_/C vgnd vpwr scs8hd_diode_2
XANTENNA__162__B _162_/B vgnd vpwr scs8hd_diode_2
XFILLER_41_3 vgnd vpwr scs8hd_decap_12
XANTENNA_mux_top_track_16.tap_buf4_0_.scs8hd_inv_1_A mux_top_track_16.tap_buf4_0_.scs8hd_inv_1/A
+ vgnd vpwr scs8hd_diode_2
XFILLER_28_121 vgnd vpwr scs8hd_decap_4
XFILLER_10_80 vgnd vpwr scs8hd_decap_12
XFILLER_6_27 vgnd vpwr scs8hd_decap_4
XFILLER_3_253 vpwr vgnd scs8hd_fill_2
XFILLER_3_220 vgnd vpwr scs8hd_decap_12
XANTENNA__157__B address[2] vgnd vpwr scs8hd_diode_2
XANTENNA__173__A _173_/A vgnd vpwr scs8hd_diode_2
Xmux_right_track_12.mux_l1_in_0_.TGATE_0_.scs8hd_ebufn_2 mux_right_track_12.INVTX1_0_.scs8hd_inv_1/Y
+ _203_/A mux_right_track_12.mux_l1_in_0_.TGATE_1_.scs8hd_ebufn_2/Z vgnd vpwr scs8hd_ebufn_2
XFILLER_40_116 vgnd vpwr scs8hd_decap_8
XFILLER_40_105 vgnd vpwr scs8hd_decap_8
XFILLER_25_179 vpwr vgnd scs8hd_fill_2
XPHY_130 vgnd vpwr scs8hd_tapvpwrvgnd_1
XPHY_141 vgnd vpwr scs8hd_tapvpwrvgnd_1
XPHY_152 vgnd vpwr scs8hd_tapvpwrvgnd_1
XFILLER_31_127 vpwr vgnd scs8hd_fill_2
XFILLER_24_190 vpwr vgnd scs8hd_fill_2
XFILLER_16_168 vgnd vpwr scs8hd_decap_4
XPHY_163 vgnd vpwr scs8hd_tapvpwrvgnd_1
XPHY_174 vgnd vpwr scs8hd_tapvpwrvgnd_1
XPHY_185 vgnd vpwr scs8hd_tapvpwrvgnd_1
XPHY_196 vgnd vpwr scs8hd_tapvpwrvgnd_1
XANTENNA__143__D _163_/D vgnd vpwr scs8hd_diode_2
XFILLER_21_90 vpwr vgnd scs8hd_fill_2
XANTENNA__168__A _169_/A vgnd vpwr scs8hd_diode_2
XFILLER_39_227 vgnd vpwr scs8hd_decap_8
Xmux_top_track_0.INVTX1_0_.scs8hd_inv_1 top_left_grid_pin_1_ mux_top_track_0.INVTX1_0_.scs8hd_inv_1/Y
+ vgnd vpwr scs8hd_inv_1
XFILLER_26_68 vgnd vpwr scs8hd_decap_12
XFILLER_42_56 vgnd vpwr scs8hd_decap_6
XFILLER_21_193 vpwr vgnd scs8hd_fill_2
XFILLER_3_39 vgnd vpwr scs8hd_decap_12
XANTENNA_mux_top_track_12.INVTX1_1_.scs8hd_inv_1_A chanx_right_in[7] vgnd vpwr scs8hd_diode_2
XANTENNA__170__B _170_/B vgnd vpwr scs8hd_diode_2
XFILLER_12_182 vpwr vgnd scs8hd_fill_2
XANTENNA_mux_right_track_14.mux_l2_in_0_.TGATE_0_.scs8hd_ebufn_2_A mux_right_track_14.mux_l1_in_0_.TGATE_1_.scs8hd_ebufn_2/Z
+ vgnd vpwr scs8hd_diode_2
XFILLER_12_15 vgnd vpwr scs8hd_decap_12
Xmux_right_track_8.INVTX1_1_.scs8hd_inv_1 right_bottom_grid_pin_7_ mux_right_track_8.INVTX1_1_.scs8hd_inv_1/Y
+ vgnd vpwr scs8hd_inv_1
XFILLER_26_230 vgnd vpwr scs8hd_decap_3
XFILLER_18_219 vpwr vgnd scs8hd_fill_2
Xmem_right_track_0.LATCH_1_.latch data_in _190_/A _144_/Y vgnd vpwr scs8hd_lpflow_inputisolatch_1
XFILLER_41_266 vgnd vpwr scs8hd_decap_8
Xmem_top_track_8.LATCH_1_.latch data_in _180_/A _124_/Y vgnd vpwr scs8hd_lpflow_inputisolatch_1
Xmux_right_track_16.mux_l1_in_0_.TGATE_1_.scs8hd_ebufn_2 mux_right_track_16.INVTX1_1_.scs8hd_inv_1/Y
+ _207_/Y mux_right_track_16.mux_l1_in_0_.TGATE_0_.scs8hd_ebufn_2/Z vgnd vpwr scs8hd_ebufn_2
XANTENNA_mux_right_track_12.mux_l2_in_0_.TGATE_0_.scs8hd_ebufn_2_TEB _202_/A vgnd
+ vpwr scs8hd_diode_2
XFILLER_5_123 vgnd vpwr scs8hd_decap_12
Xmux_top_track_0.mux_l1_in_0_.TGATE_1_.scs8hd_ebufn_2 mux_top_track_0.INVTX1_1_.scs8hd_inv_1/Y
+ _173_/Y mux_top_track_0.mux_l2_in_0_.TGATE_0_.scs8hd_ebufn_2/A vgnd vpwr scs8hd_ebufn_2
XANTENNA__149__C _153_/C vgnd vpwr scs8hd_diode_2
XFILLER_32_222 vgnd vpwr scs8hd_decap_3
XFILLER_17_263 vpwr vgnd scs8hd_fill_2
XFILLER_17_252 vpwr vgnd scs8hd_fill_2
XFILLER_17_230 vgnd vpwr scs8hd_decap_3
XANTENNA_mux_right_track_10.mux_l1_in_0_.TGATE_0_.scs8hd_ebufn_2_A mux_right_track_10.INVTX1_0_.scs8hd_inv_1/Y
+ vgnd vpwr scs8hd_diode_2
XANTENNA__165__B _164_/B vgnd vpwr scs8hd_diode_2
XFILLER_32_255 vgnd vpwr scs8hd_decap_3
XFILLER_32_266 vgnd vpwr scs8hd_decap_8
XANTENNA__181__A _181_/A vgnd vpwr scs8hd_diode_2
XFILLER_4_93 vgnd vpwr scs8hd_decap_12
XFILLER_14_200 vpwr vgnd scs8hd_fill_2
XFILLER_9_27 vgnd vpwr scs8hd_decap_12
X_186_ _186_/A _186_/Y vgnd vpwr scs8hd_inv_8
XANTENNA_mux_right_track_4.mux_l1_in_0_.TGATE_1_.scs8hd_ebufn_2_TEB _195_/Y vgnd vpwr
+ scs8hd_diode_2
XANTENNA__176__A _176_/A vgnd vpwr scs8hd_diode_2
XANTENNA_mux_top_track_16.mux_l2_in_0_.TGATE_1_.scs8hd_ebufn_2_TEB _188_/Y vgnd vpwr
+ scs8hd_diode_2
XFILLER_20_247 vgnd vpwr scs8hd_decap_4
XFILLER_34_68 vgnd vpwr scs8hd_decap_12
XFILLER_11_269 vpwr vgnd scs8hd_fill_2
XFILLER_11_258 vpwr vgnd scs8hd_fill_2
XFILLER_11_236 vpwr vgnd scs8hd_fill_2
XFILLER_11_225 vgnd vpwr scs8hd_decap_8
XFILLER_1_3 vgnd vpwr scs8hd_decap_12
X_169_ _169_/A _170_/B _165_/A _169_/Y vgnd vpwr scs8hd_nor3_4
X_238_ _238_/A chany_top_out[5] vgnd vpwr scs8hd_buf_2
Xmux_right_track_10.INVTX1_0_.scs8hd_inv_1 chany_top_in[4] mux_right_track_10.INVTX1_0_.scs8hd_inv_1/Y
+ vgnd vpwr scs8hd_inv_1
XANTENNA__146__D _153_/D vgnd vpwr scs8hd_diode_2
XFILLER_34_3 vgnd vpwr scs8hd_decap_12
XFILLER_37_100 vpwr vgnd scs8hd_fill_2
XANTENNA_mem_right_track_8.LATCH_1_.latch_D data_in vgnd vpwr scs8hd_diode_2
XFILLER_20_15 vgnd vpwr scs8hd_decap_12
XFILLER_28_188 vgnd vpwr scs8hd_decap_4
XFILLER_3_232 vgnd vpwr scs8hd_decap_12
XFILLER_19_199 vpwr vgnd scs8hd_fill_2
XFILLER_19_155 vpwr vgnd scs8hd_fill_2
XFILLER_19_111 vgnd vpwr scs8hd_decap_4
XANTENNA_mem_top_track_10.LATCH_0_.latch_SLEEPB _128_/Y vgnd vpwr scs8hd_diode_2
XANTENNA__157__C _153_/C vgnd vpwr scs8hd_diode_2
XFILLER_34_169 vgnd vpwr scs8hd_decap_4
XFILLER_42_180 vgnd vpwr scs8hd_decap_6
XFILLER_25_114 vgnd vpwr scs8hd_decap_6
XFILLER_15_15 vgnd vpwr scs8hd_decap_12
XFILLER_15_59 vpwr vgnd scs8hd_fill_2
XPHY_120 vgnd vpwr scs8hd_tapvpwrvgnd_1
XPHY_131 vgnd vpwr scs8hd_tapvpwrvgnd_1
XPHY_142 vgnd vpwr scs8hd_tapvpwrvgnd_1
XPHY_153 vgnd vpwr scs8hd_tapvpwrvgnd_1
XPHY_164 vgnd vpwr scs8hd_tapvpwrvgnd_1
XPHY_175 vgnd vpwr scs8hd_tapvpwrvgnd_1
XFILLER_24_180 vgnd vpwr scs8hd_decap_4
XFILLER_16_147 vgnd vpwr scs8hd_decap_4
XFILLER_16_125 vgnd vpwr scs8hd_decap_6
Xmux_right_track_0.mux_l2_in_0_.TGATE_0_.scs8hd_ebufn_2 mux_right_track_0.mux_l2_in_0_.TGATE_0_.scs8hd_ebufn_2/A
+ _190_/A mux_right_track_0.tap_buf4_0_.scs8hd_inv_1/A vgnd vpwr scs8hd_ebufn_2
XPHY_186 vgnd vpwr scs8hd_tapvpwrvgnd_1
XPHY_197 vgnd vpwr scs8hd_tapvpwrvgnd_1
XFILLER_39_217 vpwr vgnd scs8hd_fill_2
XPHY_0 vgnd vpwr scs8hd_decap_3
XANTENNA__168__B _170_/B vgnd vpwr scs8hd_diode_2
XFILLER_22_117 vgnd vpwr scs8hd_decap_8
XANTENNA__184__A _184_/A vgnd vpwr scs8hd_diode_2
Xmem_top_track_14.LATCH_0_.latch data_in _187_/A _136_/Y vgnd vpwr scs8hd_lpflow_inputisolatch_1
XFILLER_16_80 vgnd vpwr scs8hd_decap_12
XFILLER_12_194 vgnd vpwr scs8hd_decap_3
XFILLER_12_161 vgnd vpwr scs8hd_decap_12
XFILLER_8_154 vgnd vpwr scs8hd_decap_4
XANTENNA_mux_right_track_6.mux_l1_in_0_.TGATE_0_.scs8hd_ebufn_2_TEB _197_/A vgnd vpwr
+ scs8hd_diode_2
XANTENNA__170__C _164_/A vgnd vpwr scs8hd_diode_2
XANTENNA_mux_top_track_2.mux_l2_in_0_.TGATE_1_.scs8hd_ebufn_2_TEB _174_/Y vgnd vpwr
+ scs8hd_diode_2
XANTENNA__179__A _179_/A vgnd vpwr scs8hd_diode_2
XFILLER_12_27 vgnd vpwr scs8hd_decap_4
Xmux_right_track_12.tap_buf4_0_.scs8hd_inv_1 mux_right_track_12.tap_buf4_0_.scs8hd_inv_1/A
+ _228_/A vgnd vpwr scs8hd_inv_1
XFILLER_41_245 vgnd vpwr scs8hd_decap_8
XFILLER_5_135 vgnd vpwr scs8hd_decap_12
Xmux_top_track_14.tap_buf4_0_.scs8hd_inv_1 mux_top_track_14.tap_buf4_0_.scs8hd_inv_1/A
+ _236_/A vgnd vpwr scs8hd_inv_1
XANTENNA__149__D _163_/D vgnd vpwr scs8hd_diode_2
XFILLER_17_275 vpwr vgnd scs8hd_fill_2
Xmux_right_track_4.mux_l2_in_0_.TGATE_1_.scs8hd_ebufn_2 _214_/HI _194_/Y mux_right_track_4.tap_buf4_0_.scs8hd_inv_1/A
+ vgnd vpwr scs8hd_ebufn_2
XFILLER_4_190 vgnd vpwr scs8hd_decap_12
XFILLER_23_245 vgnd vpwr scs8hd_decap_4
XFILLER_23_201 vgnd vpwr scs8hd_fill_1
XFILLER_23_59 vpwr vgnd scs8hd_fill_2
XFILLER_23_15 vgnd vpwr scs8hd_decap_12
XFILLER_2_105 vgnd vpwr scs8hd_decap_12
XFILLER_14_223 vgnd vpwr scs8hd_decap_3
X_185_ _185_/A _185_/Y vgnd vpwr scs8hd_inv_8
XFILLER_9_39 vgnd vpwr scs8hd_decap_12
Xmux_right_track_6.INVTX1_1_.scs8hd_inv_1 right_bottom_grid_pin_5_ mux_right_track_6.INVTX1_1_.scs8hd_inv_1/Y
+ vgnd vpwr scs8hd_inv_1
XFILLER_1_171 vgnd vpwr scs8hd_decap_12
XFILLER_20_226 vgnd vpwr scs8hd_decap_8
XANTENNA__192__A _192_/A vgnd vpwr scs8hd_diode_2
XFILLER_18_15 vgnd vpwr scs8hd_decap_12
X_168_ _169_/A _170_/B _164_/A _168_/Y vgnd vpwr scs8hd_nor3_4
X_237_ _237_/A chany_top_out[6] vgnd vpwr scs8hd_buf_2
XFILLER_24_80 vgnd vpwr scs8hd_decap_12
XFILLER_10_270 vgnd vpwr scs8hd_decap_4
XFILLER_6_274 vgnd vpwr scs8hd_fill_1
XFILLER_6_252 vgnd vpwr scs8hd_decap_3
X_099_ address[4] address[5] _134_/C vgnd vpwr scs8hd_or2_4
XFILLER_27_3 vgnd vpwr scs8hd_decap_12
XFILLER_37_134 vgnd vpwr scs8hd_decap_3
XFILLER_37_156 vpwr vgnd scs8hd_fill_2
XFILLER_1_62 vgnd vpwr scs8hd_decap_12
XFILLER_1_51 vgnd vpwr scs8hd_decap_8
XANTENNA__187__A _187_/A vgnd vpwr scs8hd_diode_2
XFILLER_20_27 vgnd vpwr scs8hd_decap_4
XFILLER_28_145 vgnd vpwr scs8hd_decap_3
XANTENNA__097__A address[3] vgnd vpwr scs8hd_diode_2
XFILLER_28_167 vpwr vgnd scs8hd_fill_2
XFILLER_10_93 vgnd vpwr scs8hd_decap_12
XFILLER_34_104 vpwr vgnd scs8hd_fill_2
XFILLER_34_137 vpwr vgnd scs8hd_fill_2
XFILLER_19_123 vgnd vpwr scs8hd_decap_4
XANTENNA__157__D _163_/D vgnd vpwr scs8hd_diode_2
XFILLER_35_90 vpwr vgnd scs8hd_fill_2
XANTENNA_mux_top_track_4.mux_l2_in_0_.TGATE_0_.scs8hd_ebufn_2_TEB _176_/A vgnd vpwr
+ scs8hd_diode_2
XFILLER_33_181 vpwr vgnd scs8hd_fill_2
XFILLER_25_137 vpwr vgnd scs8hd_fill_2
XFILLER_25_104 vgnd vpwr scs8hd_decap_8
XFILLER_15_27 vgnd vpwr scs8hd_decap_12
XFILLER_31_59 vpwr vgnd scs8hd_fill_2
XFILLER_31_15 vgnd vpwr scs8hd_decap_12
XFILLER_0_258 vpwr vgnd scs8hd_fill_2
XPHY_110 vgnd vpwr scs8hd_tapvpwrvgnd_1
XPHY_121 vgnd vpwr scs8hd_tapvpwrvgnd_1
XPHY_132 vgnd vpwr scs8hd_tapvpwrvgnd_1
XPHY_143 vgnd vpwr scs8hd_tapvpwrvgnd_1
XPHY_154 vgnd vpwr scs8hd_tapvpwrvgnd_1
XPHY_165 vgnd vpwr scs8hd_tapvpwrvgnd_1
XPHY_176 vgnd vpwr scs8hd_tapvpwrvgnd_1
XPHY_187 vgnd vpwr scs8hd_tapvpwrvgnd_1
XPHY_198 vgnd vpwr scs8hd_tapvpwrvgnd_1
XPHY_1 vgnd vpwr scs8hd_decap_3
XANTENNA__168__C _164_/A vgnd vpwr scs8hd_diode_2
XFILLER_22_129 vpwr vgnd scs8hd_fill_2
XFILLER_22_107 vgnd vpwr scs8hd_fill_1
XFILLER_30_184 vpwr vgnd scs8hd_fill_2
XFILLER_30_140 vgnd vpwr scs8hd_decap_12