* NGSPICE file created from sb_1__2_.ext - technology: sky130A

* Black-box entry subcircuit for sky130_fd_sc_hd__dfxtp_1 abstract view
.subckt sky130_fd_sc_hd__dfxtp_1 D Q CLK VGND VNB VPB VPWR
.ends

* Black-box entry subcircuit for sky130_fd_sc_hd__fill_1 abstract view
.subckt sky130_fd_sc_hd__fill_1 VGND VNB VPB VPWR
.ends

* Black-box entry subcircuit for sky130_fd_sc_hd__decap_8 abstract view
.subckt sky130_fd_sc_hd__decap_8 VGND VNB VPB VPWR
.ends

* Black-box entry subcircuit for sky130_fd_sc_hd__mux2_1 abstract view
.subckt sky130_fd_sc_hd__mux2_1 A0 A1 S X VGND VNB VPB VPWR
.ends

* Black-box entry subcircuit for sky130_fd_sc_hd__decap_4 abstract view
.subckt sky130_fd_sc_hd__decap_4 VGND VNB VPB VPWR
.ends

* Black-box entry subcircuit for sky130_fd_sc_hd__buf_2 abstract view
.subckt sky130_fd_sc_hd__buf_2 A X VGND VNB VPB VPWR
.ends

* Black-box entry subcircuit for sky130_fd_sc_hd__clkbuf_1 abstract view
.subckt sky130_fd_sc_hd__clkbuf_1 A X VGND VNB VPB VPWR
.ends

* Black-box entry subcircuit for sky130_fd_sc_hd__conb_1 abstract view
.subckt sky130_fd_sc_hd__conb_1 HI LO VGND VNB VPB VPWR
.ends

* Black-box entry subcircuit for sky130_fd_sc_hd__tapvpwrvgnd_1 abstract view
.subckt sky130_fd_sc_hd__tapvpwrvgnd_1 VGND VPWR
.ends

* Black-box entry subcircuit for sky130_fd_sc_hd__buf_4 abstract view
.subckt sky130_fd_sc_hd__buf_4 A X VGND VNB VPB VPWR
.ends

* Black-box entry subcircuit for sky130_fd_sc_hd__fill_2 abstract view
.subckt sky130_fd_sc_hd__fill_2 VGND VNB VPB VPWR
.ends

* Black-box entry subcircuit for sky130_fd_sc_hd__decap_12 abstract view
.subckt sky130_fd_sc_hd__decap_12 VGND VNB VPB VPWR
.ends

* Black-box entry subcircuit for sky130_fd_sc_hd__decap_3 abstract view
.subckt sky130_fd_sc_hd__decap_3 VGND VNB VPB VPWR
.ends

* Black-box entry subcircuit for sky130_fd_sc_hd__decap_6 abstract view
.subckt sky130_fd_sc_hd__decap_6 VGND VNB VPB VPWR
.ends

* Black-box entry subcircuit for sky130_fd_sc_hd__clkbuf_16 abstract view
.subckt sky130_fd_sc_hd__clkbuf_16 A X VGND VNB VPB VPWR
.ends

* Black-box entry subcircuit for sky130_fd_sc_hd__diode_2 abstract view
.subckt sky130_fd_sc_hd__diode_2 DIODE VGND VNB VPB VPWR
.ends

.subckt sb_1__2_ SC_IN_BOT SC_IN_TOP SC_OUT_BOT SC_OUT_TOP bottom_left_grid_pin_42_
+ bottom_left_grid_pin_43_ bottom_left_grid_pin_44_ bottom_left_grid_pin_45_ bottom_left_grid_pin_46_
+ bottom_left_grid_pin_47_ bottom_left_grid_pin_48_ bottom_left_grid_pin_49_ ccff_head
+ ccff_tail chanx_left_in[0] chanx_left_in[10] chanx_left_in[11] chanx_left_in[12]
+ chanx_left_in[13] chanx_left_in[14] chanx_left_in[15] chanx_left_in[16] chanx_left_in[17]
+ chanx_left_in[18] chanx_left_in[19] chanx_left_in[1] chanx_left_in[2] chanx_left_in[3]
+ chanx_left_in[4] chanx_left_in[5] chanx_left_in[6] chanx_left_in[7] chanx_left_in[8]
+ chanx_left_in[9] chanx_left_out[0] chanx_left_out[10] chanx_left_out[11] chanx_left_out[12]
+ chanx_left_out[13] chanx_left_out[14] chanx_left_out[15] chanx_left_out[16] chanx_left_out[17]
+ chanx_left_out[18] chanx_left_out[19] chanx_left_out[1] chanx_left_out[2] chanx_left_out[3]
+ chanx_left_out[4] chanx_left_out[5] chanx_left_out[6] chanx_left_out[7] chanx_left_out[8]
+ chanx_left_out[9] chanx_right_in[0] chanx_right_in[10] chanx_right_in[11] chanx_right_in[12]
+ chanx_right_in[13] chanx_right_in[14] chanx_right_in[15] chanx_right_in[16] chanx_right_in[17]
+ chanx_right_in[18] chanx_right_in[19] chanx_right_in[1] chanx_right_in[2] chanx_right_in[3]
+ chanx_right_in[4] chanx_right_in[5] chanx_right_in[6] chanx_right_in[7] chanx_right_in[8]
+ chanx_right_in[9] chanx_right_out[0] chanx_right_out[10] chanx_right_out[11] chanx_right_out[12]
+ chanx_right_out[13] chanx_right_out[14] chanx_right_out[15] chanx_right_out[16]
+ chanx_right_out[17] chanx_right_out[18] chanx_right_out[19] chanx_right_out[1] chanx_right_out[2]
+ chanx_right_out[3] chanx_right_out[4] chanx_right_out[5] chanx_right_out[6] chanx_right_out[7]
+ chanx_right_out[8] chanx_right_out[9] chany_bottom_in[0] chany_bottom_in[10] chany_bottom_in[11]
+ chany_bottom_in[12] chany_bottom_in[13] chany_bottom_in[14] chany_bottom_in[15]
+ chany_bottom_in[16] chany_bottom_in[17] chany_bottom_in[18] chany_bottom_in[19]
+ chany_bottom_in[1] chany_bottom_in[2] chany_bottom_in[3] chany_bottom_in[4] chany_bottom_in[5]
+ chany_bottom_in[6] chany_bottom_in[7] chany_bottom_in[8] chany_bottom_in[9] chany_bottom_out[0]
+ chany_bottom_out[10] chany_bottom_out[11] chany_bottom_out[12] chany_bottom_out[13]
+ chany_bottom_out[14] chany_bottom_out[15] chany_bottom_out[16] chany_bottom_out[17]
+ chany_bottom_out[18] chany_bottom_out[19] chany_bottom_out[1] chany_bottom_out[2]
+ chany_bottom_out[3] chany_bottom_out[4] chany_bottom_out[5] chany_bottom_out[6]
+ chany_bottom_out[7] chany_bottom_out[8] chany_bottom_out[9] left_bottom_grid_pin_34_
+ left_bottom_grid_pin_35_ left_bottom_grid_pin_36_ left_bottom_grid_pin_37_ left_bottom_grid_pin_38_
+ left_bottom_grid_pin_39_ left_bottom_grid_pin_40_ left_bottom_grid_pin_41_ left_top_grid_pin_1_
+ prog_clk right_bottom_grid_pin_34_ right_bottom_grid_pin_35_ right_bottom_grid_pin_36_
+ right_bottom_grid_pin_37_ right_bottom_grid_pin_38_ right_bottom_grid_pin_39_ right_bottom_grid_pin_40_
+ right_bottom_grid_pin_41_ right_top_grid_pin_1_ VPWR VGND
Xmem_right_track_2.sky130_fd_sc_hd__dfxtp_1_0_ mux_right_track_0.mux_l4_in_0_/S mux_right_track_2.mux_l1_in_1_/S
+ clkbuf_3_7_0_prog_clk/X VGND VGND VPWR VPWR sky130_fd_sc_hd__dfxtp_1
Xmem_left_track_17.sky130_fd_sc_hd__dfxtp_1_0_ mux_left_track_9.mux_l4_in_0_/S mux_left_track_17.mux_l1_in_1_/S
+ clkbuf_3_2_0_prog_clk/X VGND VGND VPWR VPWR sky130_fd_sc_hd__dfxtp_1
XFILLER_26_74 VGND VGND VPWR VPWR sky130_fd_sc_hd__fill_1
XFILLER_13_188 VGND VGND VPWR VPWR sky130_fd_sc_hd__decap_8
Xmux_bottom_track_3.mux_l1_in_1_ bottom_left_grid_pin_47_ bottom_left_grid_pin_45_
+ mux_bottom_track_3.mux_l1_in_3_/S mux_bottom_track_3.mux_l1_in_1_/X VGND VGND VPWR
+ VPWR sky130_fd_sc_hd__mux2_1
XFILLER_24_206 VGND VGND VPWR VPWR sky130_fd_sc_hd__decap_8
XFILLER_5_184 VGND VGND VPWR VPWR sky130_fd_sc_hd__decap_4
X_062_ _062_/A chanx_left_out[16] VGND VGND VPWR VPWR sky130_fd_sc_hd__buf_2
XFILLER_23_53 VGND VGND VPWR VPWR sky130_fd_sc_hd__decap_8
XFILLER_23_42 VGND VGND VPWR VPWR sky130_fd_sc_hd__decap_8
Xmem_right_track_8.sky130_fd_sc_hd__dfxtp_1_1_ mux_right_track_8.mux_l1_in_0_/S mux_right_track_8.mux_l2_in_1_/S
+ clkbuf_3_7_0_prog_clk/X VGND VGND VPWR VPWR sky130_fd_sc_hd__dfxtp_1
Xclkbuf_3_4_0_prog_clk clkbuf_2_2_0_prog_clk/X clkbuf_3_4_0_prog_clk/X VGND VGND VPWR
+ VPWR sky130_fd_sc_hd__clkbuf_1
X_114_ _114_/A chany_bottom_out[4] VGND VGND VPWR VPWR sky130_fd_sc_hd__buf_2
X_045_ _045_/HI _045_/LO VGND VGND VPWR VPWR sky130_fd_sc_hd__conb_1
Xmem_bottom_track_25.sky130_fd_sc_hd__dfxtp_1_2_ mux_bottom_track_25.mux_l2_in_1_/S
+ mux_bottom_track_25.mux_l3_in_0_/S clkbuf_3_5_0_prog_clk/X VGND VGND VPWR VPWR sky130_fd_sc_hd__dfxtp_1
Xmux_bottom_track_17.mux_l1_in_0_ bottom_left_grid_pin_46_ chanx_right_in[13] mux_bottom_track_17.mux_l1_in_1_/S
+ mux_bottom_track_17.mux_l1_in_0_/X VGND VGND VPWR VPWR sky130_fd_sc_hd__mux2_1
XFILLER_28_183 VGND VGND VPWR VPWR sky130_fd_sc_hd__decap_8
XFILLER_13_3 VGND VGND VPWR VPWR sky130_fd_sc_hd__decap_4
X_028_ _028_/HI _028_/LO VGND VGND VPWR VPWR sky130_fd_sc_hd__conb_1
XFILLER_6_23 VGND VGND VPWR VPWR sky130_fd_sc_hd__decap_8
XFILLER_17_109 VGND VGND VPWR VPWR sky130_fd_sc_hd__decap_8
XFILLER_15_43 VGND VGND VPWR VPWR sky130_fd_sc_hd__fill_1
XPHY_192 VGND VPWR sky130_fd_sc_hd__tapvpwrvgnd_1
XFILLER_31_123 VGND VGND VPWR VPWR sky130_fd_sc_hd__fill_1
XPHY_181 VGND VPWR sky130_fd_sc_hd__tapvpwrvgnd_1
XPHY_170 VGND VPWR sky130_fd_sc_hd__tapvpwrvgnd_1
Xmux_bottom_track_3.sky130_fd_sc_hd__buf_4_0_ mux_bottom_track_3.mux_l3_in_0_/X _117_/A
+ VGND VGND VPWR VPWR sky130_fd_sc_hd__buf_4
XFILLER_26_97 VGND VGND VPWR VPWR sky130_fd_sc_hd__decap_8
XFILLER_26_42 VGND VGND VPWR VPWR sky130_fd_sc_hd__decap_8
Xmux_bottom_track_3.mux_l1_in_0_ bottom_left_grid_pin_43_ chanx_right_in[4] mux_bottom_track_3.mux_l1_in_3_/S
+ mux_bottom_track_3.mux_l1_in_0_/X VGND VGND VPWR VPWR sky130_fd_sc_hd__mux2_1
XFILLER_3_68 VGND VGND VPWR VPWR sky130_fd_sc_hd__fill_1
XFILLER_9_149 VGND VGND VPWR VPWR sky130_fd_sc_hd__decap_8
XFILLER_27_215 VGND VGND VPWR VPWR sky130_fd_sc_hd__decap_8
XFILLER_33_218 VGND VGND VPWR VPWR sky130_fd_sc_hd__decap_4
XFILLER_18_215 VGND VGND VPWR VPWR sky130_fd_sc_hd__decap_8
XFILLER_10_137 VGND VGND VPWR VPWR sky130_fd_sc_hd__fill_2
XFILLER_5_130 VGND VGND VPWR VPWR sky130_fd_sc_hd__decap_12
X_061_ chanx_right_in[16] chanx_left_out[17] VGND VGND VPWR VPWR sky130_fd_sc_hd__buf_2
Xmem_right_track_8.sky130_fd_sc_hd__dfxtp_1_0_ mux_right_track_4.mux_l4_in_0_/S mux_right_track_8.mux_l1_in_0_/S
+ clkbuf_3_7_0_prog_clk/X VGND VGND VPWR VPWR sky130_fd_sc_hd__dfxtp_1
XFILLER_2_133 VGND VGND VPWR VPWR sky130_fd_sc_hd__fill_2
XFILLER_2_144 VGND VGND VPWR VPWR sky130_fd_sc_hd__decap_8
XFILLER_2_188 VGND VGND VPWR VPWR sky130_fd_sc_hd__fill_2
Xmux_left_track_9.sky130_fd_sc_hd__buf_4_0_ mux_left_track_9.mux_l4_in_0_/X _074_/A
+ VGND VGND VPWR VPWR sky130_fd_sc_hd__buf_4
XFILLER_18_21 VGND VGND VPWR VPWR sky130_fd_sc_hd__decap_8
X_113_ _113_/A chany_bottom_out[5] VGND VGND VPWR VPWR sky130_fd_sc_hd__buf_2
X_044_ _044_/HI _044_/LO VGND VGND VPWR VPWR sky130_fd_sc_hd__conb_1
Xmem_bottom_track_25.sky130_fd_sc_hd__dfxtp_1_1_ mux_bottom_track_25.mux_l1_in_0_/S
+ mux_bottom_track_25.mux_l2_in_1_/S clkbuf_3_5_0_prog_clk/X VGND VGND VPWR VPWR sky130_fd_sc_hd__dfxtp_1
XFILLER_29_53 VGND VGND VPWR VPWR sky130_fd_sc_hd__decap_8
XFILLER_4_206 VGND VGND VPWR VPWR sky130_fd_sc_hd__decap_8
XFILLER_19_184 VGND VGND VPWR VPWR sky130_fd_sc_hd__decap_8
XFILLER_6_35 VGND VGND VPWR VPWR sky130_fd_sc_hd__decap_8
XFILLER_6_79 VGND VGND VPWR VPWR sky130_fd_sc_hd__decap_12
XFILLER_15_11 VGND VGND VPWR VPWR sky130_fd_sc_hd__decap_8
XPHY_193 VGND VPWR sky130_fd_sc_hd__tapvpwrvgnd_1
XPHY_182 VGND VPWR sky130_fd_sc_hd__tapvpwrvgnd_1
XPHY_171 VGND VPWR sky130_fd_sc_hd__tapvpwrvgnd_1
XPHY_160 VGND VPWR sky130_fd_sc_hd__tapvpwrvgnd_1
Xmux_right_track_8.mux_l2_in_3_ _042_/HI chanx_left_in[16] mux_right_track_8.mux_l2_in_1_/S
+ mux_right_track_8.mux_l2_in_3_/X VGND VGND VPWR VPWR sky130_fd_sc_hd__mux2_1
XFILLER_16_198 VGND VGND VPWR VPWR sky130_fd_sc_hd__fill_2
XFILLER_16_154 VGND VGND VPWR VPWR sky130_fd_sc_hd__decap_3
Xmux_left_track_25.sky130_fd_sc_hd__buf_4_0_ mux_left_track_25.mux_l3_in_0_/X _066_/A
+ VGND VGND VPWR VPWR sky130_fd_sc_hd__buf_4
XFILLER_22_124 VGND VGND VPWR VPWR sky130_fd_sc_hd__decap_8
Xmem_bottom_track_3.sky130_fd_sc_hd__dfxtp_1_2_ mux_bottom_track_3.mux_l2_in_0_/S
+ mux_bottom_track_3.mux_l3_in_0_/S clkbuf_3_0_0_prog_clk/X VGND VGND VPWR VPWR sky130_fd_sc_hd__dfxtp_1
XFILLER_26_32 VGND VGND VPWR VPWR sky130_fd_sc_hd__fill_1
XFILLER_12_78 VGND VGND VPWR VPWR sky130_fd_sc_hd__fill_2
XFILLER_12_56 VGND VGND VPWR VPWR sky130_fd_sc_hd__fill_2
XFILLER_12_23 VGND VGND VPWR VPWR sky130_fd_sc_hd__decap_8
XFILLER_5_175 VGND VGND VPWR VPWR sky130_fd_sc_hd__decap_8
Xmux_right_track_8.mux_l4_in_0_ mux_right_track_8.mux_l3_in_1_/X mux_right_track_8.mux_l3_in_0_/X
+ mux_right_track_8.mux_l4_in_0_/S mux_right_track_8.mux_l4_in_0_/X VGND VGND VPWR
+ VPWR sky130_fd_sc_hd__mux2_1
X_060_ chanx_right_in[17] chanx_left_out[18] VGND VGND VPWR VPWR sky130_fd_sc_hd__buf_2
XFILLER_3_3 VGND VGND VPWR VPWR sky130_fd_sc_hd__fill_1
XFILLER_18_11 VGND VGND VPWR VPWR sky130_fd_sc_hd__fill_1
X_043_ _043_/HI _043_/LO VGND VGND VPWR VPWR sky130_fd_sc_hd__conb_1
X_112_ _112_/A chany_bottom_out[6] VGND VGND VPWR VPWR sky130_fd_sc_hd__buf_2
XFILLER_7_204 VGND VGND VPWR VPWR sky130_fd_sc_hd__decap_8
XFILLER_7_215 VGND VGND VPWR VPWR sky130_fd_sc_hd__decap_8
Xmux_right_track_8.mux_l3_in_1_ mux_right_track_8.mux_l2_in_3_/X mux_right_track_8.mux_l2_in_2_/X
+ mux_right_track_8.mux_l3_in_0_/S mux_right_track_8.mux_l3_in_1_/X VGND VGND VPWR
+ VPWR sky130_fd_sc_hd__mux2_1
Xmem_bottom_track_25.sky130_fd_sc_hd__dfxtp_1_0_ mux_bottom_track_23.mux_l2_in_0_/S
+ mux_bottom_track_25.mux_l1_in_0_/S clkbuf_3_0_0_prog_clk/X VGND VGND VPWR VPWR sky130_fd_sc_hd__dfxtp_1
XFILLER_20_23 VGND VGND VPWR VPWR sky130_fd_sc_hd__decap_8
XFILLER_20_6 VGND VGND VPWR VPWR sky130_fd_sc_hd__decap_8
XFILLER_31_11 VGND VGND VPWR VPWR sky130_fd_sc_hd__decap_8
XFILLER_25_144 VGND VGND VPWR VPWR sky130_fd_sc_hd__decap_8
Xmux_right_track_8.mux_l2_in_2_ chanx_left_in[6] chany_bottom_in[16] mux_right_track_8.mux_l2_in_1_/S
+ mux_right_track_8.mux_l2_in_2_/X VGND VGND VPWR VPWR sky130_fd_sc_hd__mux2_1
XFILLER_15_89 VGND VGND VPWR VPWR sky130_fd_sc_hd__fill_2
XFILLER_15_78 VGND VGND VPWR VPWR sky130_fd_sc_hd__decap_8
XPHY_183 VGND VPWR sky130_fd_sc_hd__tapvpwrvgnd_1
XFILLER_31_169 VGND VGND VPWR VPWR sky130_fd_sc_hd__decap_12
XPHY_172 VGND VPWR sky130_fd_sc_hd__tapvpwrvgnd_1
XPHY_161 VGND VPWR sky130_fd_sc_hd__tapvpwrvgnd_1
XPHY_150 VGND VPWR sky130_fd_sc_hd__tapvpwrvgnd_1
Xclkbuf_2_1_0_prog_clk clkbuf_2_1_0_prog_clk/A clkbuf_3_3_0_prog_clk/A VGND VGND VPWR
+ VPWR sky130_fd_sc_hd__clkbuf_1
XFILLER_26_66 VGND VGND VPWR VPWR sky130_fd_sc_hd__decap_8
XFILLER_13_158 VGND VGND VPWR VPWR sky130_fd_sc_hd__decap_8
XFILLER_13_147 VGND VGND VPWR VPWR sky130_fd_sc_hd__fill_2
XFILLER_13_114 VGND VGND VPWR VPWR sky130_fd_sc_hd__decap_8
XFILLER_13_103 VGND VGND VPWR VPWR sky130_fd_sc_hd__decap_8
Xmem_bottom_track_3.sky130_fd_sc_hd__dfxtp_1_1_ mux_bottom_track_3.mux_l1_in_3_/S
+ mux_bottom_track_3.mux_l2_in_0_/S clkbuf_3_0_0_prog_clk/X VGND VGND VPWR VPWR sky130_fd_sc_hd__dfxtp_1
XFILLER_8_184 VGND VGND VPWR VPWR sky130_fd_sc_hd__fill_1
XFILLER_33_209 VGND VGND VPWR VPWR sky130_fd_sc_hd__decap_8
XFILLER_18_206 VGND VGND VPWR VPWR sky130_fd_sc_hd__decap_8
XFILLER_23_78 VGND VGND VPWR VPWR sky130_fd_sc_hd__decap_8
Xmem_bottom_track_9.sky130_fd_sc_hd__dfxtp_1_2_ mux_bottom_track_9.mux_l2_in_1_/S
+ mux_bottom_track_9.mux_l3_in_0_/S clkbuf_3_1_0_prog_clk/X VGND VGND VPWR VPWR sky130_fd_sc_hd__dfxtp_1
XFILLER_29_3 VGND VGND VPWR VPWR sky130_fd_sc_hd__fill_2
XFILLER_1_190 VGND VGND VPWR VPWR sky130_fd_sc_hd__decap_8
X_042_ _042_/HI _042_/LO VGND VGND VPWR VPWR sky130_fd_sc_hd__conb_1
X_111_ _111_/A chany_bottom_out[7] VGND VGND VPWR VPWR sky130_fd_sc_hd__buf_2
Xmux_right_track_8.mux_l3_in_0_ mux_right_track_8.mux_l2_in_1_/X mux_right_track_8.mux_l2_in_0_/X
+ mux_right_track_8.mux_l3_in_0_/S mux_right_track_8.mux_l3_in_0_/X VGND VGND VPWR
+ VPWR sky130_fd_sc_hd__mux2_1
XFILLER_29_33 VGND VGND VPWR VPWR sky130_fd_sc_hd__decap_12
Xclkbuf_3_3_0_prog_clk clkbuf_3_3_0_prog_clk/A clkbuf_3_3_0_prog_clk/X VGND VGND VPWR
+ VPWR sky130_fd_sc_hd__clkbuf_1
XFILLER_20_57 VGND VGND VPWR VPWR sky130_fd_sc_hd__decap_8
XFILLER_20_46 VGND VGND VPWR VPWR sky130_fd_sc_hd__fill_2
XFILLER_19_153 VGND VGND VPWR VPWR sky130_fd_sc_hd__decap_8
XFILLER_31_23 VGND VGND VPWR VPWR sky130_fd_sc_hd__decap_12
XFILLER_25_189 VGND VGND VPWR VPWR sky130_fd_sc_hd__decap_8
XFILLER_25_123 VGND VGND VPWR VPWR sky130_fd_sc_hd__decap_4
XFILLER_15_35 VGND VGND VPWR VPWR sky130_fd_sc_hd__decap_8
XFILLER_0_222 VGND VGND VPWR VPWR sky130_fd_sc_hd__fill_1
XPHY_184 VGND VPWR sky130_fd_sc_hd__tapvpwrvgnd_1
XPHY_173 VGND VPWR sky130_fd_sc_hd__tapvpwrvgnd_1
Xmux_right_track_8.mux_l2_in_1_ chany_bottom_in[9] chany_bottom_in[2] mux_right_track_8.mux_l2_in_1_/S
+ mux_right_track_8.mux_l2_in_1_/X VGND VGND VPWR VPWR sky130_fd_sc_hd__mux2_1
XPHY_162 VGND VPWR sky130_fd_sc_hd__tapvpwrvgnd_1
XPHY_151 VGND VPWR sky130_fd_sc_hd__tapvpwrvgnd_1
XPHY_140 VGND VPWR sky130_fd_sc_hd__tapvpwrvgnd_1
XFILLER_11_3 VGND VGND VPWR VPWR sky130_fd_sc_hd__decap_8
XFILLER_26_23 VGND VGND VPWR VPWR sky130_fd_sc_hd__decap_8
Xmem_bottom_track_3.sky130_fd_sc_hd__dfxtp_1_0_ mux_bottom_track_1.mux_l3_in_0_/S
+ mux_bottom_track_3.mux_l1_in_3_/S clkbuf_3_0_0_prog_clk/X VGND VGND VPWR VPWR sky130_fd_sc_hd__dfxtp_1
XFILLER_7_80 VGND VGND VPWR VPWR sky130_fd_sc_hd__decap_8
XFILLER_21_170 VGND VGND VPWR VPWR sky130_fd_sc_hd__decap_12
Xmem_bottom_track_11.sky130_fd_sc_hd__dfxtp_1_2_ mux_bottom_track_11.mux_l2_in_1_/S
+ mux_bottom_track_11.mux_l3_in_0_/S clkbuf_3_4_0_prog_clk/X VGND VGND VPWR VPWR sky130_fd_sc_hd__dfxtp_1
XFILLER_10_129 VGND VGND VPWR VPWR sky130_fd_sc_hd__decap_8
XFILLER_23_210 VGND VGND VPWR VPWR sky130_fd_sc_hd__fill_1
Xmem_bottom_track_9.sky130_fd_sc_hd__dfxtp_1_1_ mux_bottom_track_9.mux_l1_in_0_/S
+ mux_bottom_track_9.mux_l2_in_1_/S clkbuf_3_1_0_prog_clk/X VGND VGND VPWR VPWR sky130_fd_sc_hd__dfxtp_1
XFILLER_2_125 VGND VGND VPWR VPWR sky130_fd_sc_hd__decap_8
XFILLER_0_28 VGND VGND VPWR VPWR sky130_fd_sc_hd__decap_3
XFILLER_20_202 VGND VGND VPWR VPWR sky130_fd_sc_hd__decap_12
XFILLER_18_79 VGND VGND VPWR VPWR sky130_fd_sc_hd__fill_1
XFILLER_18_35 VGND VGND VPWR VPWR sky130_fd_sc_hd__decap_8
X_041_ _041_/HI _041_/LO VGND VGND VPWR VPWR sky130_fd_sc_hd__conb_1
X_110_ _110_/A chany_bottom_out[8] VGND VGND VPWR VPWR sky130_fd_sc_hd__buf_2
XFILLER_1_60 VGND VGND VPWR VPWR sky130_fd_sc_hd__fill_1
XFILLER_29_45 VGND VGND VPWR VPWR sky130_fd_sc_hd__fill_2
XFILLER_28_154 VGND VGND VPWR VPWR sky130_fd_sc_hd__fill_1
XFILLER_19_143 VGND VGND VPWR VPWR sky130_fd_sc_hd__fill_1
XFILLER_19_132 VGND VGND VPWR VPWR sky130_fd_sc_hd__decap_8
XFILLER_13_7 VGND VGND VPWR VPWR sky130_fd_sc_hd__fill_1
XFILLER_10_91 VGND VGND VPWR VPWR sky130_fd_sc_hd__fill_1
XFILLER_31_79 VGND VGND VPWR VPWR sky130_fd_sc_hd__decap_3
XFILLER_31_46 VGND VGND VPWR VPWR sky130_fd_sc_hd__decap_12
XFILLER_31_35 VGND VGND VPWR VPWR sky130_fd_sc_hd__decap_4
XFILLER_25_168 VGND VGND VPWR VPWR sky130_fd_sc_hd__decap_12
Xmux_bottom_track_11.sky130_fd_sc_hd__buf_4_0_ mux_bottom_track_11.mux_l3_in_0_/X
+ _113_/A VGND VGND VPWR VPWR sky130_fd_sc_hd__buf_4
XPHY_185 VGND VPWR sky130_fd_sc_hd__tapvpwrvgnd_1
XPHY_174 VGND VPWR sky130_fd_sc_hd__tapvpwrvgnd_1
Xmux_right_track_8.mux_l2_in_0_ right_bottom_grid_pin_41_ mux_right_track_8.mux_l1_in_0_/X
+ mux_right_track_8.mux_l2_in_1_/S mux_right_track_8.mux_l2_in_0_/X VGND VGND VPWR
+ VPWR sky130_fd_sc_hd__mux2_1
XPHY_163 VGND VPWR sky130_fd_sc_hd__tapvpwrvgnd_1
XPHY_152 VGND VPWR sky130_fd_sc_hd__tapvpwrvgnd_1
XPHY_141 VGND VPWR sky130_fd_sc_hd__tapvpwrvgnd_1
XPHY_130 VGND VPWR sky130_fd_sc_hd__tapvpwrvgnd_1
XFILLER_16_146 VGND VGND VPWR VPWR sky130_fd_sc_hd__decap_6
XFILLER_30_193 VGND VGND VPWR VPWR sky130_fd_sc_hd__decap_8
XFILLER_30_171 VGND VGND VPWR VPWR sky130_fd_sc_hd__fill_1
XFILLER_22_105 VGND VGND VPWR VPWR sky130_fd_sc_hd__decap_3
XFILLER_21_182 VGND VGND VPWR VPWR sky130_fd_sc_hd__fill_1
XFILLER_12_182 VGND VGND VPWR VPWR sky130_fd_sc_hd__decap_8
Xmem_bottom_track_11.sky130_fd_sc_hd__dfxtp_1_1_ mux_bottom_track_11.mux_l1_in_0_/S
+ mux_bottom_track_11.mux_l2_in_1_/S clkbuf_3_4_0_prog_clk/X VGND VGND VPWR VPWR sky130_fd_sc_hd__dfxtp_1
XFILLER_12_48 VGND VGND VPWR VPWR sky130_fd_sc_hd__decap_8
XFILLER_5_123 VGND VGND VPWR VPWR sky130_fd_sc_hd__fill_1
XFILLER_9_49 VGND VGND VPWR VPWR sky130_fd_sc_hd__decap_12
Xmem_bottom_track_9.sky130_fd_sc_hd__dfxtp_1_0_ mux_bottom_track_7.mux_l3_in_0_/S
+ mux_bottom_track_9.mux_l1_in_0_/S clkbuf_3_1_0_prog_clk/X VGND VGND VPWR VPWR sky130_fd_sc_hd__dfxtp_1
X_040_ _040_/HI _040_/LO VGND VGND VPWR VPWR sky130_fd_sc_hd__conb_1
XFILLER_28_111 VGND VGND VPWR VPWR sky130_fd_sc_hd__decap_8
XFILLER_3_210 VGND VGND VPWR VPWR sky130_fd_sc_hd__fill_1
XFILLER_31_58 VGND VGND VPWR VPWR sky130_fd_sc_hd__decap_3
XFILLER_25_114 VGND VGND VPWR VPWR sky130_fd_sc_hd__decap_8
XFILLER_25_103 VGND VGND VPWR VPWR sky130_fd_sc_hd__fill_2
XPHY_186 VGND VPWR sky130_fd_sc_hd__tapvpwrvgnd_1
XFILLER_31_128 VGND VGND VPWR VPWR sky130_fd_sc_hd__decap_8
XPHY_175 VGND VPWR sky130_fd_sc_hd__tapvpwrvgnd_1
XPHY_164 VGND VPWR sky130_fd_sc_hd__tapvpwrvgnd_1
XPHY_153 VGND VPWR sky130_fd_sc_hd__tapvpwrvgnd_1
XPHY_142 VGND VPWR sky130_fd_sc_hd__tapvpwrvgnd_1
XPHY_131 VGND VPWR sky130_fd_sc_hd__tapvpwrvgnd_1
XPHY_120 VGND VPWR sky130_fd_sc_hd__tapvpwrvgnd_1
XFILLER_15_191 VGND VGND VPWR VPWR sky130_fd_sc_hd__decap_8
XPHY_0 VGND VGND VPWR VPWR sky130_fd_sc_hd__decap_3
XFILLER_13_139 VGND VGND VPWR VPWR sky130_fd_sc_hd__decap_8
Xmux_bottom_track_13.mux_l2_in_0_ mux_bottom_track_13.mux_l1_in_1_/X mux_bottom_track_13.mux_l1_in_0_/X
+ mux_bottom_track_13.mux_l2_in_0_/S mux_bottom_track_13.mux_l2_in_0_/X VGND VGND
+ VPWR VPWR sky130_fd_sc_hd__mux2_1
Xmux_bottom_track_25.mux_l3_in_0_ mux_bottom_track_25.mux_l2_in_1_/X mux_bottom_track_25.mux_l2_in_0_/X
+ mux_bottom_track_25.mux_l3_in_0_/S mux_bottom_track_25.mux_l3_in_0_/X VGND VGND
+ VPWR VPWR sky130_fd_sc_hd__mux2_1
Xmem_bottom_track_11.sky130_fd_sc_hd__dfxtp_1_0_ mux_bottom_track_9.mux_l3_in_0_/S
+ mux_bottom_track_11.mux_l1_in_0_/S clkbuf_3_1_0_prog_clk/X VGND VGND VPWR VPWR sky130_fd_sc_hd__dfxtp_1
XFILLER_8_154 VGND VGND VPWR VPWR sky130_fd_sc_hd__decap_6
XFILLER_8_176 VGND VGND VPWR VPWR sky130_fd_sc_hd__decap_8
Xmux_right_track_8.mux_l1_in_0_ right_bottom_grid_pin_37_ right_top_grid_pin_1_ mux_right_track_8.mux_l1_in_0_/S
+ mux_right_track_8.mux_l1_in_0_/X VGND VGND VPWR VPWR sky130_fd_sc_hd__mux2_1
XFILLER_32_212 VGND VGND VPWR VPWR sky130_fd_sc_hd__fill_2
Xclkbuf_2_0_0_prog_clk clkbuf_2_1_0_prog_clk/A clkbuf_2_0_0_prog_clk/X VGND VGND VPWR
+ VPWR sky130_fd_sc_hd__clkbuf_1
XFILLER_5_146 VGND VGND VPWR VPWR sky130_fd_sc_hd__decap_8
Xmux_bottom_track_27.sky130_fd_sc_hd__buf_4_0_ mux_bottom_track_27.mux_l2_in_0_/X
+ _105_/A VGND VGND VPWR VPWR sky130_fd_sc_hd__buf_4
Xmux_right_track_8.sky130_fd_sc_hd__buf_4_0_ mux_right_track_8.mux_l4_in_0_/X _094_/A
+ VGND VGND VPWR VPWR sky130_fd_sc_hd__buf_4
Xmux_bottom_track_25.mux_l2_in_1_ _051_/HI chanx_left_in[18] mux_bottom_track_25.mux_l2_in_1_/S
+ mux_bottom_track_25.mux_l2_in_1_/X VGND VGND VPWR VPWR sky130_fd_sc_hd__mux2_1
Xmux_bottom_track_13.mux_l1_in_1_ _045_/HI chanx_left_in[10] mux_bottom_track_13.mux_l1_in_0_/S
+ mux_bottom_track_13.mux_l1_in_1_/X VGND VGND VPWR VPWR sky130_fd_sc_hd__mux2_1
XFILLER_20_215 VGND VGND VPWR VPWR sky130_fd_sc_hd__decap_8
Xmux_bottom_track_9.mux_l3_in_0_ mux_bottom_track_9.mux_l2_in_1_/X mux_bottom_track_9.mux_l2_in_0_/X
+ mux_bottom_track_9.mux_l3_in_0_/S mux_bottom_track_9.mux_l3_in_0_/X VGND VGND VPWR
+ VPWR sky130_fd_sc_hd__mux2_1
XFILLER_11_215 VGND VGND VPWR VPWR sky130_fd_sc_hd__decap_8
Xmem_bottom_track_17.sky130_fd_sc_hd__dfxtp_1_1_ mux_bottom_track_17.mux_l1_in_1_/S
+ mux_bottom_track_17.mux_l2_in_0_/S clkbuf_3_5_0_prog_clk/X VGND VGND VPWR VPWR sky130_fd_sc_hd__dfxtp_1
XFILLER_27_3 VGND VGND VPWR VPWR sky130_fd_sc_hd__decap_6
X_099_ chanx_left_in[0] chany_bottom_out[19] VGND VGND VPWR VPWR sky130_fd_sc_hd__buf_2
XFILLER_28_145 VGND VGND VPWR VPWR sky130_fd_sc_hd__decap_8
XFILLER_28_101 VGND VGND VPWR VPWR sky130_fd_sc_hd__fill_1
XFILLER_20_38 VGND VGND VPWR VPWR sky130_fd_sc_hd__decap_8
Xmux_bottom_track_9.mux_l2_in_1_ _028_/HI chanx_left_in[15] mux_bottom_track_9.mux_l2_in_1_/S
+ mux_bottom_track_9.mux_l2_in_1_/X VGND VGND VPWR VPWR sky130_fd_sc_hd__mux2_1
Xmux_right_track_32.sky130_fd_sc_hd__buf_4_0_ mux_right_track_32.mux_l3_in_0_/X _082_/A
+ VGND VGND VPWR VPWR sky130_fd_sc_hd__buf_4
XPHY_187 VGND VPWR sky130_fd_sc_hd__tapvpwrvgnd_1
XPHY_176 VGND VPWR sky130_fd_sc_hd__tapvpwrvgnd_1
Xmux_right_track_4.mux_l1_in_6_ chanx_left_in[14] chanx_left_in[5] mux_right_track_4.mux_l1_in_1_/S
+ mux_right_track_4.mux_l1_in_6_/X VGND VGND VPWR VPWR sky130_fd_sc_hd__mux2_1
XPHY_165 VGND VPWR sky130_fd_sc_hd__tapvpwrvgnd_1
XPHY_154 VGND VPWR sky130_fd_sc_hd__tapvpwrvgnd_1
XPHY_143 VGND VPWR sky130_fd_sc_hd__tapvpwrvgnd_1
XPHY_132 VGND VPWR sky130_fd_sc_hd__tapvpwrvgnd_1
XPHY_121 VGND VPWR sky130_fd_sc_hd__tapvpwrvgnd_1
XPHY_110 VGND VPWR sky130_fd_sc_hd__tapvpwrvgnd_1
XPHY_1 VGND VGND VPWR VPWR sky130_fd_sc_hd__decap_3
XFILLER_21_195 VGND VGND VPWR VPWR sky130_fd_sc_hd__decap_12
XFILLER_21_184 VGND VGND VPWR VPWR sky130_fd_sc_hd__fill_2
Xclkbuf_3_2_0_prog_clk clkbuf_3_3_0_prog_clk/A clkbuf_3_2_0_prog_clk/X VGND VGND VPWR
+ VPWR sky130_fd_sc_hd__clkbuf_1
XFILLER_8_188 VGND VGND VPWR VPWR sky130_fd_sc_hd__decap_8
Xmux_left_track_3.mux_l2_in_3_ _032_/HI left_bottom_grid_pin_40_ mux_left_track_3.mux_l2_in_2_/S
+ mux_left_track_3.mux_l2_in_3_/X VGND VGND VPWR VPWR sky130_fd_sc_hd__mux2_1
Xmem_left_track_1.sky130_fd_sc_hd__dfxtp_1_3_ mux_left_track_1.mux_l3_in_1_/S mux_left_track_1.mux_l4_in_0_/S
+ clkbuf_3_0_0_prog_clk/X VGND VGND VPWR VPWR sky130_fd_sc_hd__dfxtp_1
XFILLER_5_158 VGND VGND VPWR VPWR sky130_fd_sc_hd__decap_8
XFILLER_23_202 VGND VGND VPWR VPWR sky130_fd_sc_hd__decap_8
XFILLER_4_84 VGND VGND VPWR VPWR sky130_fd_sc_hd__decap_8
Xmux_bottom_track_13.mux_l1_in_0_ bottom_left_grid_pin_44_ chanx_right_in[10] mux_bottom_track_13.mux_l1_in_0_/S
+ mux_bottom_track_13.mux_l1_in_0_/X VGND VGND VPWR VPWR sky130_fd_sc_hd__mux2_1
Xmux_bottom_track_25.mux_l2_in_0_ bottom_left_grid_pin_42_ mux_bottom_track_25.mux_l1_in_0_/X
+ mux_bottom_track_25.mux_l2_in_1_/S mux_bottom_track_25.mux_l2_in_0_/X VGND VGND
+ VPWR VPWR sky130_fd_sc_hd__mux2_1
XFILLER_13_71 VGND VGND VPWR VPWR sky130_fd_sc_hd__decap_8
XFILLER_11_205 VGND VGND VPWR VPWR sky130_fd_sc_hd__fill_1
Xmem_bottom_track_17.sky130_fd_sc_hd__dfxtp_1_0_ mux_bottom_track_15.mux_l2_in_0_/S
+ mux_bottom_track_17.mux_l1_in_1_/S clkbuf_3_5_0_prog_clk/X VGND VGND VPWR VPWR sky130_fd_sc_hd__dfxtp_1
X_098_ _098_/A chanx_right_out[0] VGND VGND VPWR VPWR sky130_fd_sc_hd__buf_2
Xmux_left_track_3.mux_l4_in_0_ mux_left_track_3.mux_l3_in_1_/X mux_left_track_3.mux_l3_in_0_/X
+ mux_left_track_3.mux_l4_in_0_/S mux_left_track_3.mux_l4_in_0_/X VGND VGND VPWR VPWR
+ sky130_fd_sc_hd__mux2_1
Xmux_bottom_track_9.mux_l2_in_0_ chanx_left_in[8] mux_bottom_track_9.mux_l1_in_0_/X
+ mux_bottom_track_9.mux_l2_in_1_/S mux_bottom_track_9.mux_l2_in_0_/X VGND VGND VPWR
+ VPWR sky130_fd_sc_hd__mux2_1
Xmux_right_track_4.mux_l1_in_5_ chany_bottom_in[17] chany_bottom_in[10] mux_right_track_4.mux_l1_in_1_/S
+ mux_right_track_4.mux_l1_in_5_/X VGND VGND VPWR VPWR sky130_fd_sc_hd__mux2_1
XFILLER_25_127 VGND VGND VPWR VPWR sky130_fd_sc_hd__fill_1
XFILLER_18_190 VGND VGND VPWR VPWR sky130_fd_sc_hd__decap_12
XPHY_100 VGND VPWR sky130_fd_sc_hd__tapvpwrvgnd_1
XPHY_188 VGND VPWR sky130_fd_sc_hd__tapvpwrvgnd_1
XFILLER_31_108 VGND VGND VPWR VPWR sky130_fd_sc_hd__decap_12
XPHY_177 VGND VPWR sky130_fd_sc_hd__tapvpwrvgnd_1
XPHY_166 VGND VPWR sky130_fd_sc_hd__tapvpwrvgnd_1
XPHY_155 VGND VPWR sky130_fd_sc_hd__tapvpwrvgnd_1
XFILLER_21_71 VGND VGND VPWR VPWR sky130_fd_sc_hd__decap_8
XFILLER_21_60 VGND VGND VPWR VPWR sky130_fd_sc_hd__fill_1
XPHY_144 VGND VPWR sky130_fd_sc_hd__tapvpwrvgnd_1
XPHY_133 VGND VPWR sky130_fd_sc_hd__tapvpwrvgnd_1
Xmux_left_track_3.mux_l3_in_1_ mux_left_track_3.mux_l2_in_3_/X mux_left_track_3.mux_l2_in_2_/X
+ mux_left_track_3.mux_l3_in_1_/S mux_left_track_3.mux_l3_in_1_/X VGND VGND VPWR VPWR
+ sky130_fd_sc_hd__mux2_1
XPHY_122 VGND VPWR sky130_fd_sc_hd__tapvpwrvgnd_1
XPHY_111 VGND VPWR sky130_fd_sc_hd__tapvpwrvgnd_1
XPHY_2 VGND VGND VPWR VPWR sky130_fd_sc_hd__decap_3
XFILLER_30_163 VGND VGND VPWR VPWR sky130_fd_sc_hd__decap_8
Xmux_left_track_5.sky130_fd_sc_hd__buf_4_0_ mux_left_track_5.mux_l4_in_0_/X _076_/A
+ VGND VGND VPWR VPWR sky130_fd_sc_hd__buf_4
XFILLER_7_62 VGND VGND VPWR VPWR sky130_fd_sc_hd__fill_2
XFILLER_16_93 VGND VGND VPWR VPWR sky130_fd_sc_hd__decap_8
XFILLER_8_145 VGND VGND VPWR VPWR sky130_fd_sc_hd__decap_8
Xmux_left_track_3.mux_l2_in_2_ left_bottom_grid_pin_38_ left_bottom_grid_pin_36_ mux_left_track_3.mux_l2_in_2_/S
+ mux_left_track_3.mux_l2_in_2_/X VGND VGND VPWR VPWR sky130_fd_sc_hd__mux2_1
XFILLER_5_104 VGND VGND VPWR VPWR sky130_fd_sc_hd__decap_12
Xmem_left_track_1.sky130_fd_sc_hd__dfxtp_1_2_ mux_left_track_1.mux_l2_in_3_/S mux_left_track_1.mux_l3_in_1_/S
+ clkbuf_3_0_0_prog_clk/X VGND VGND VPWR VPWR sky130_fd_sc_hd__dfxtp_1
Xmux_right_track_4.mux_l2_in_3_ _041_/HI mux_right_track_4.mux_l1_in_6_/X mux_right_track_4.mux_l2_in_3_/S
+ mux_right_track_4.mux_l2_in_3_/X VGND VGND VPWR VPWR sky130_fd_sc_hd__mux2_1
X_097_ _097_/A chanx_right_out[1] VGND VGND VPWR VPWR sky130_fd_sc_hd__buf_2
Xmux_bottom_track_25.mux_l1_in_0_ chanx_right_in[19] chanx_right_in[18] mux_bottom_track_25.mux_l1_in_0_/S
+ mux_bottom_track_25.mux_l1_in_0_/X VGND VGND VPWR VPWR sky130_fd_sc_hd__mux2_1
XFILLER_32_3 VGND VGND VPWR VPWR sky130_fd_sc_hd__decap_4
XFILLER_19_114 VGND VGND VPWR VPWR sky130_fd_sc_hd__decap_8
XFILLER_19_82 VGND VGND VPWR VPWR sky130_fd_sc_hd__decap_6
XFILLER_19_71 VGND VGND VPWR VPWR sky130_fd_sc_hd__decap_8
XFILLER_31_39 VGND VGND VPWR VPWR sky130_fd_sc_hd__fill_1
XPHY_189 VGND VPWR sky130_fd_sc_hd__tapvpwrvgnd_1
XPHY_178 VGND VPWR sky130_fd_sc_hd__tapvpwrvgnd_1
Xmux_right_track_4.mux_l1_in_4_ chany_bottom_in[3] right_bottom_grid_pin_41_ mux_right_track_4.mux_l1_in_1_/S
+ mux_right_track_4.mux_l1_in_4_/X VGND VGND VPWR VPWR sky130_fd_sc_hd__mux2_1
XPHY_167 VGND VPWR sky130_fd_sc_hd__tapvpwrvgnd_1
XFILLER_24_172 VGND VGND VPWR VPWR sky130_fd_sc_hd__decap_8
XPHY_156 VGND VPWR sky130_fd_sc_hd__tapvpwrvgnd_1
XPHY_145 VGND VPWR sky130_fd_sc_hd__tapvpwrvgnd_1
XPHY_134 VGND VPWR sky130_fd_sc_hd__tapvpwrvgnd_1
XPHY_123 VGND VPWR sky130_fd_sc_hd__tapvpwrvgnd_1
XPHY_112 VGND VPWR sky130_fd_sc_hd__tapvpwrvgnd_1
XPHY_101 VGND VPWR sky130_fd_sc_hd__tapvpwrvgnd_1
Xmux_left_track_3.mux_l3_in_0_ mux_left_track_3.mux_l2_in_1_/X mux_left_track_3.mux_l2_in_0_/X
+ mux_left_track_3.mux_l3_in_1_/S mux_left_track_3.mux_l3_in_0_/X VGND VGND VPWR VPWR
+ sky130_fd_sc_hd__mux2_1
XPHY_3 VGND VGND VPWR VPWR sky130_fd_sc_hd__decap_3
XFILLER_8_102 VGND VGND VPWR VPWR sky130_fd_sc_hd__decap_12
Xmux_right_track_4.mux_l4_in_0_ mux_right_track_4.mux_l3_in_1_/X mux_right_track_4.mux_l3_in_0_/X
+ mux_right_track_4.mux_l4_in_0_/S mux_right_track_4.mux_l4_in_0_/X VGND VGND VPWR
+ VPWR sky130_fd_sc_hd__mux2_1
Xmux_bottom_track_9.mux_l1_in_0_ bottom_left_grid_pin_42_ chanx_right_in[8] mux_bottom_track_9.mux_l1_in_0_/S
+ mux_bottom_track_9.mux_l1_in_0_/X VGND VGND VPWR VPWR sky130_fd_sc_hd__mux2_1
XFILLER_8_135 VGND VGND VPWR VPWR sky130_fd_sc_hd__fill_1
Xmux_bottom_track_9.sky130_fd_sc_hd__buf_4_0_ mux_bottom_track_9.mux_l3_in_0_/X _114_/A
+ VGND VGND VPWR VPWR sky130_fd_sc_hd__buf_4