* NGSPICE file created from sb_1__1_.ext - technology: sky130A

* Black-box entry subcircuit for sky130_fd_sc_hd__fill_1 abstract view
.subckt sky130_fd_sc_hd__fill_1 VGND VNB VPB VPWR
.ends

* Black-box entry subcircuit for sky130_fd_sc_hd__diode_2 abstract view
.subckt sky130_fd_sc_hd__diode_2 DIODE VGND VNB VPB VPWR
.ends

* Black-box entry subcircuit for sky130_fd_sc_hd__decap_8 abstract view
.subckt sky130_fd_sc_hd__decap_8 VGND VNB VPB VPWR
.ends

* Black-box entry subcircuit for sky130_fd_sc_hd__fill_2 abstract view
.subckt sky130_fd_sc_hd__fill_2 VGND VNB VPB VPWR
.ends

* Black-box entry subcircuit for sky130_fd_sc_hd__mux2_1 abstract view
.subckt sky130_fd_sc_hd__mux2_1 A0 A1 S X VGND VNB VPB VPWR
.ends

* Black-box entry subcircuit for sky130_fd_sc_hd__decap_12 abstract view
.subckt sky130_fd_sc_hd__decap_12 VGND VNB VPB VPWR
.ends

* Black-box entry subcircuit for sky130_fd_sc_hd__decap_3 abstract view
.subckt sky130_fd_sc_hd__decap_3 VGND VNB VPB VPWR
.ends

* Black-box entry subcircuit for sky130_fd_sc_hd__buf_2 abstract view
.subckt sky130_fd_sc_hd__buf_2 A X VGND VNB VPB VPWR
.ends

* Black-box entry subcircuit for sky130_fd_sc_hd__dfxbp_1 abstract view
.subckt sky130_fd_sc_hd__dfxbp_1 D Q Q_N CLK VGND VNB VPB VPWR
.ends

* Black-box entry subcircuit for sky130_fd_sc_hd__conb_1 abstract view
.subckt sky130_fd_sc_hd__conb_1 HI LO VGND VNB VPB VPWR
.ends

* Black-box entry subcircuit for sky130_fd_sc_hd__buf_1 abstract view
.subckt sky130_fd_sc_hd__buf_1 A X VGND VNB VPB VPWR
.ends

* Black-box entry subcircuit for sky130_fd_sc_hd__tapvpwrvgnd_1 abstract view
.subckt sky130_fd_sc_hd__tapvpwrvgnd_1 VGND VPWR
.ends

* Black-box entry subcircuit for sky130_fd_sc_hd__decap_4 abstract view
.subckt sky130_fd_sc_hd__decap_4 VGND VNB VPB VPWR
.ends

* Black-box entry subcircuit for sky130_fd_sc_hd__decap_6 abstract view
.subckt sky130_fd_sc_hd__decap_6 VGND VNB VPB VPWR
.ends

.subckt sb_1__1_ bottom_left_grid_pin_34_ bottom_left_grid_pin_35_ bottom_left_grid_pin_36_
+ bottom_left_grid_pin_37_ bottom_left_grid_pin_38_ bottom_left_grid_pin_39_ bottom_left_grid_pin_40_
+ bottom_left_grid_pin_41_ ccff_head ccff_tail chanx_left_in[0] chanx_left_in[10]
+ chanx_left_in[11] chanx_left_in[12] chanx_left_in[13] chanx_left_in[14] chanx_left_in[15]
+ chanx_left_in[16] chanx_left_in[17] chanx_left_in[18] chanx_left_in[19] chanx_left_in[1]
+ chanx_left_in[2] chanx_left_in[3] chanx_left_in[4] chanx_left_in[5] chanx_left_in[6]
+ chanx_left_in[7] chanx_left_in[8] chanx_left_in[9] chanx_left_out[0] chanx_left_out[10]
+ chanx_left_out[11] chanx_left_out[12] chanx_left_out[13] chanx_left_out[14] chanx_left_out[15]
+ chanx_left_out[16] chanx_left_out[17] chanx_left_out[18] chanx_left_out[19] chanx_left_out[1]
+ chanx_left_out[2] chanx_left_out[3] chanx_left_out[4] chanx_left_out[5] chanx_left_out[6]
+ chanx_left_out[7] chanx_left_out[8] chanx_left_out[9] chanx_right_in[0] chanx_right_in[10]
+ chanx_right_in[11] chanx_right_in[12] chanx_right_in[13] chanx_right_in[14] chanx_right_in[15]
+ chanx_right_in[16] chanx_right_in[17] chanx_right_in[18] chanx_right_in[19] chanx_right_in[1]
+ chanx_right_in[2] chanx_right_in[3] chanx_right_in[4] chanx_right_in[5] chanx_right_in[6]
+ chanx_right_in[7] chanx_right_in[8] chanx_right_in[9] chanx_right_out[0] chanx_right_out[10]
+ chanx_right_out[11] chanx_right_out[12] chanx_right_out[13] chanx_right_out[14]
+ chanx_right_out[15] chanx_right_out[16] chanx_right_out[17] chanx_right_out[18]
+ chanx_right_out[19] chanx_right_out[1] chanx_right_out[2] chanx_right_out[3] chanx_right_out[4]
+ chanx_right_out[5] chanx_right_out[6] chanx_right_out[7] chanx_right_out[8] chanx_right_out[9]
+ chany_bottom_in[0] chany_bottom_in[10] chany_bottom_in[11] chany_bottom_in[12] chany_bottom_in[13]
+ chany_bottom_in[14] chany_bottom_in[15] chany_bottom_in[16] chany_bottom_in[17]
+ chany_bottom_in[18] chany_bottom_in[19] chany_bottom_in[1] chany_bottom_in[2] chany_bottom_in[3]
+ chany_bottom_in[4] chany_bottom_in[5] chany_bottom_in[6] chany_bottom_in[7] chany_bottom_in[8]
+ chany_bottom_in[9] chany_bottom_out[0] chany_bottom_out[10] chany_bottom_out[11]
+ chany_bottom_out[12] chany_bottom_out[13] chany_bottom_out[14] chany_bottom_out[15]
+ chany_bottom_out[16] chany_bottom_out[17] chany_bottom_out[18] chany_bottom_out[19]
+ chany_bottom_out[1] chany_bottom_out[2] chany_bottom_out[3] chany_bottom_out[4]
+ chany_bottom_out[5] chany_bottom_out[6] chany_bottom_out[7] chany_bottom_out[8]
+ chany_bottom_out[9] chany_top_in[0] chany_top_in[10] chany_top_in[11] chany_top_in[12]
+ chany_top_in[13] chany_top_in[14] chany_top_in[15] chany_top_in[16] chany_top_in[17]
+ chany_top_in[18] chany_top_in[19] chany_top_in[1] chany_top_in[2] chany_top_in[3]
+ chany_top_in[4] chany_top_in[5] chany_top_in[6] chany_top_in[7] chany_top_in[8]
+ chany_top_in[9] chany_top_out[0] chany_top_out[10] chany_top_out[11] chany_top_out[12]
+ chany_top_out[13] chany_top_out[14] chany_top_out[15] chany_top_out[16] chany_top_out[17]
+ chany_top_out[18] chany_top_out[19] chany_top_out[1] chany_top_out[2] chany_top_out[3]
+ chany_top_out[4] chany_top_out[5] chany_top_out[6] chany_top_out[7] chany_top_out[8]
+ chany_top_out[9] left_top_grid_pin_42_ left_top_grid_pin_43_ left_top_grid_pin_44_
+ left_top_grid_pin_45_ left_top_grid_pin_46_ left_top_grid_pin_47_ left_top_grid_pin_48_
+ left_top_grid_pin_49_ prog_clk right_top_grid_pin_42_ right_top_grid_pin_43_ right_top_grid_pin_44_
+ right_top_grid_pin_45_ right_top_grid_pin_46_ right_top_grid_pin_47_ right_top_grid_pin_48_
+ right_top_grid_pin_49_ top_left_grid_pin_34_ top_left_grid_pin_35_ top_left_grid_pin_36_
+ top_left_grid_pin_37_ top_left_grid_pin_38_ top_left_grid_pin_39_ top_left_grid_pin_40_
+ top_left_grid_pin_41_ VPWR VGND
XFILLER_22_166 VGND VGND VPWR VPWR sky130_fd_sc_hd__fill_1
XANTENNA_mux_right_track_0.mux_l2_in_3__A0 _029_/HI VGND VGND VPWR VPWR sky130_fd_sc_hd__diode_2
XANTENNA_mux_top_track_4.mux_l2_in_7__S mux_top_track_4.mux_l2_in_0_/S VGND VGND VPWR
+ VPWR sky130_fd_sc_hd__diode_2
XFILLER_42_51 VGND VGND VPWR VPWR sky130_fd_sc_hd__decap_8
XFILLER_42_40 VGND VGND VPWR VPWR sky130_fd_sc_hd__fill_2
XANTENNA_mux_top_track_16.mux_l1_in_2__S mux_top_track_16.mux_l1_in_2_/S VGND VGND
+ VPWR VPWR sky130_fd_sc_hd__diode_2
Xmux_bottom_track_3.mux_l1_in_1_ chanx_right_in[11] chanx_right_in[4] mux_bottom_track_3.mux_l1_in_4_/S
+ mux_bottom_track_3.mux_l1_in_1_/X VGND VGND VPWR VPWR sky130_fd_sc_hd__mux2_1
XANTENNA_mux_right_track_2.mux_l3_in_0__A0 mux_right_track_2.mux_l2_in_1_/X VGND VGND
+ VPWR VPWR sky130_fd_sc_hd__diode_2
XANTENNA_mux_left_track_5.mux_l4_in_1__A1 mux_left_track_5.mux_l3_in_2_/X VGND VGND
+ VPWR VPWR sky130_fd_sc_hd__diode_2
XANTENNA_mem_bottom_track_1.sky130_fd_sc_hd__dfxbp_1_1__D mux_bottom_track_1.mux_l1_in_0_/S
+ VGND VGND VPWR VPWR sky130_fd_sc_hd__diode_2
XFILLER_8_192 VGND VGND VPWR VPWR sky130_fd_sc_hd__fill_2
XANTENNA_mux_left_track_25.mux_l3_in_0__A1 mux_left_track_25.mux_l2_in_0_/X VGND VGND
+ VPWR VPWR sky130_fd_sc_hd__diode_2
XFILLER_27_258 VGND VGND VPWR VPWR sky130_fd_sc_hd__fill_2
XFILLER_27_236 VGND VGND VPWR VPWR sky130_fd_sc_hd__fill_2
XFILLER_27_214 VGND VGND VPWR VPWR sky130_fd_sc_hd__fill_2
XFILLER_10_103 VGND VGND VPWR VPWR sky130_fd_sc_hd__fill_2
XFILLER_10_136 VGND VGND VPWR VPWR sky130_fd_sc_hd__fill_2
XFILLER_12_10 VGND VGND VPWR VPWR sky130_fd_sc_hd__fill_2
XFILLER_12_32 VGND VGND VPWR VPWR sky130_fd_sc_hd__fill_2
XFILLER_12_54 VGND VGND VPWR VPWR sky130_fd_sc_hd__fill_2
XFILLER_18_269 VGND VGND VPWR VPWR sky130_fd_sc_hd__fill_2
XANTENNA__124__A chany_bottom_in[10] VGND VGND VPWR VPWR sky130_fd_sc_hd__diode_2
XFILLER_24_206 VGND VGND VPWR VPWR sky130_fd_sc_hd__fill_2
XANTENNA_mem_top_track_24.sky130_fd_sc_hd__dfxbp_1_0__CLK prog_clk VGND VGND VPWR
+ VPWR sky130_fd_sc_hd__diode_2
XFILLER_32_261 VGND VGND VPWR VPWR sky130_fd_sc_hd__decap_12
XANTENNA_mux_right_track_4.mux_l1_in_0__A1 chany_top_in[1] VGND VGND VPWR VPWR sky130_fd_sc_hd__diode_2
XFILLER_30_209 VGND VGND VPWR VPWR sky130_fd_sc_hd__decap_3
XANTENNA_mux_top_track_0.mux_l1_in_0__A0 top_left_grid_pin_36_ VGND VGND VPWR VPWR
+ sky130_fd_sc_hd__diode_2
XFILLER_15_239 VGND VGND VPWR VPWR sky130_fd_sc_hd__fill_2
X_131_ _131_/A chany_top_out[4] VGND VGND VPWR VPWR sky130_fd_sc_hd__buf_2
X_062_ chanx_right_in[12] chanx_left_out[13] VGND VGND VPWR VPWR sky130_fd_sc_hd__buf_2
XANTENNA_mux_left_track_5.mux_l5_in_0__A1 mux_left_track_5.mux_l4_in_0_/X VGND VGND
+ VPWR VPWR sky130_fd_sc_hd__diode_2
XANTENNA_mux_left_track_33.mux_l1_in_2__A1 chany_bottom_in[15] VGND VGND VPWR VPWR
+ sky130_fd_sc_hd__diode_2
XFILLER_2_154 VGND VGND VPWR VPWR sky130_fd_sc_hd__fill_2
XFILLER_2_132 VGND VGND VPWR VPWR sky130_fd_sc_hd__fill_2
XANTENNA_mux_bottom_track_3.mux_l1_in_3__S mux_bottom_track_3.mux_l1_in_4_/S VGND
+ VGND VPWR VPWR sky130_fd_sc_hd__diode_2
XANTENNA_mux_bottom_track_1.mux_l3_in_0__S mux_bottom_track_1.mux_l3_in_1_/S VGND
+ VGND VPWR VPWR sky130_fd_sc_hd__diode_2
XANTENNA__119__A _119_/A VGND VGND VPWR VPWR sky130_fd_sc_hd__diode_2
XANTENNA_mem_bottom_track_17.sky130_fd_sc_hd__dfxbp_1_1__D mux_bottom_track_17.mux_l1_in_0_/S
+ VGND VGND VPWR VPWR sky130_fd_sc_hd__diode_2
XFILLER_20_242 VGND VGND VPWR VPWR sky130_fd_sc_hd__decap_3
XANTENNA_mux_right_track_2.mux_l1_in_2__A1 right_top_grid_pin_45_ VGND VGND VPWR VPWR
+ sky130_fd_sc_hd__diode_2
XFILLER_18_64 VGND VGND VPWR VPWR sky130_fd_sc_hd__fill_1
Xmem_bottom_track_5.sky130_fd_sc_hd__dfxbp_1_3_ mux_bottom_track_5.mux_l3_in_2_/S
+ mux_bottom_track_5.mux_l4_in_1_/S mem_bottom_track_5.sky130_fd_sc_hd__dfxbp_1_3_/Q_N
+ prog_clk VGND VGND VPWR VPWR sky130_fd_sc_hd__dfxbp_1
XFILLER_34_41 VGND VGND VPWR VPWR sky130_fd_sc_hd__fill_2
XFILLER_11_220 VGND VGND VPWR VPWR sky130_fd_sc_hd__fill_2
XFILLER_11_275 VGND VGND VPWR VPWR sky130_fd_sc_hd__fill_2
XFILLER_7_235 VGND VGND VPWR VPWR sky130_fd_sc_hd__fill_2
X_114_ _114_/A chany_bottom_out[1] VGND VGND VPWR VPWR sky130_fd_sc_hd__buf_2
X_045_ _045_/HI _045_/LO VGND VGND VPWR VPWR sky130_fd_sc_hd__conb_1
XANTENNA_mem_top_track_16.sky130_fd_sc_hd__dfxbp_1_1__CLK prog_clk VGND VGND VPWR
+ VPWR sky130_fd_sc_hd__diode_2
XANTENNA_mux_right_track_24.mux_l2_in_3__S mux_right_track_24.mux_l2_in_2_/S VGND
+ VGND VPWR VPWR sky130_fd_sc_hd__diode_2
XFILLER_39_19 VGND VGND VPWR VPWR sky130_fd_sc_hd__fill_2
XANTENNA_mux_bottom_track_25.mux_l3_in_0__S mux_bottom_track_25.mux_l3_in_1_/S VGND
+ VGND VPWR VPWR sky130_fd_sc_hd__diode_2
Xmux_bottom_track_17.mux_l1_in_0_ chany_top_in[17] chany_top_in[8] mux_bottom_track_17.mux_l1_in_0_/S
+ mux_bottom_track_17.mux_l1_in_0_/X VGND VGND VPWR VPWR sky130_fd_sc_hd__mux2_1
XANTENNA_mux_left_track_33.mux_l2_in_1__A1 mux_left_track_33.mux_l1_in_2_/X VGND VGND
+ VPWR VPWR sky130_fd_sc_hd__diode_2
XANTENNA_mux_left_track_17.mux_l2_in_0__S mux_left_track_17.mux_l2_in_1_/S VGND VGND
+ VPWR VPWR sky130_fd_sc_hd__diode_2
XFILLER_20_54 VGND VGND VPWR VPWR sky130_fd_sc_hd__fill_2
XFILLER_20_32 VGND VGND VPWR VPWR sky130_fd_sc_hd__decap_3
XFILLER_20_21 VGND VGND VPWR VPWR sky130_fd_sc_hd__fill_2
XANTENNA_mux_right_track_0.mux_l1_in_4__A1 chany_bottom_in[12] VGND VGND VPWR VPWR
+ sky130_fd_sc_hd__diode_2
XFILLER_6_23 VGND VGND VPWR VPWR sky130_fd_sc_hd__fill_2
XANTENNA__132__A chany_bottom_in[2] VGND VGND VPWR VPWR sky130_fd_sc_hd__diode_2
XANTENNA_mux_right_track_16.mux_l3_in_0__S mux_right_track_16.mux_l3_in_0_/S VGND
+ VGND VPWR VPWR sky130_fd_sc_hd__diode_2
X_028_ _028_/HI _028_/LO VGND VGND VPWR VPWR sky130_fd_sc_hd__conb_1
XFILLER_6_89 VGND VGND VPWR VPWR sky130_fd_sc_hd__fill_1
XANTENNA_mux_right_track_0.mux_l1_in_1__S mux_right_track_0.mux_l1_in_1_/S VGND VGND
+ VPWR VPWR sky130_fd_sc_hd__diode_2
XFILLER_13_3 VGND VGND VPWR VPWR sky130_fd_sc_hd__fill_2
XANTENNA_mux_right_track_2.mux_l2_in_1__A1 mux_right_track_2.mux_l1_in_2_/X VGND VGND
+ VPWR VPWR sky130_fd_sc_hd__diode_2
XFILLER_25_175 VGND VGND VPWR VPWR sky130_fd_sc_hd__fill_2
XFILLER_31_53 VGND VGND VPWR VPWR sky130_fd_sc_hd__fill_2
XFILLER_25_197 VGND VGND VPWR VPWR sky130_fd_sc_hd__fill_2
XFILLER_15_76 VGND VGND VPWR VPWR sky130_fd_sc_hd__fill_2
XANTENNA_mux_bottom_track_3.mux_l1_in_1__A0 chanx_right_in[11] VGND VGND VPWR VPWR
+ sky130_fd_sc_hd__diode_2
Xmux_bottom_track_3.sky130_fd_sc_hd__buf_4_0_ mux_bottom_track_3.mux_l4_in_0_/X _114_/A
+ VGND VGND VPWR VPWR sky130_fd_sc_hd__buf_1
XANTENNA__127__A _127_/A VGND VGND VPWR VPWR sky130_fd_sc_hd__diode_2
XFILLER_31_123 VGND VGND VPWR VPWR sky130_fd_sc_hd__decap_3
XFILLER_31_101 VGND VGND VPWR VPWR sky130_fd_sc_hd__fill_2
XPHY_170 VGND VPWR sky130_fd_sc_hd__tapvpwrvgnd_1
XANTENNA_mux_top_track_0.mux_l2_in_1__S mux_top_track_0.mux_l2_in_2_/S VGND VGND VPWR
+ VPWR sky130_fd_sc_hd__diode_2
XANTENNA_mux_left_track_33.mux_l3_in_0__A1 mux_left_track_33.mux_l2_in_0_/X VGND VGND
+ VPWR VPWR sky130_fd_sc_hd__diode_2
XPHY_192 VGND VPWR sky130_fd_sc_hd__tapvpwrvgnd_1
XPHY_181 VGND VPWR sky130_fd_sc_hd__tapvpwrvgnd_1
XFILLER_39_245 VGND VGND VPWR VPWR sky130_fd_sc_hd__decap_8
XANTENNA_mux_left_track_9.mux_l2_in_2__A0 left_top_grid_pin_42_ VGND VGND VPWR VPWR
+ sky130_fd_sc_hd__diode_2
XFILLER_7_8 VGND VGND VPWR VPWR sky130_fd_sc_hd__fill_2
XANTENNA_mux_right_track_0.mux_l2_in_3__A1 chanx_left_in[12] VGND VGND VPWR VPWR sky130_fd_sc_hd__diode_2
XFILLER_26_97 VGND VGND VPWR VPWR sky130_fd_sc_hd__decap_3
XANTENNA_mem_bottom_track_5.sky130_fd_sc_hd__dfxbp_1_4__CLK prog_clk VGND VGND VPWR
+ VPWR sky130_fd_sc_hd__diode_2
XFILLER_13_167 VGND VGND VPWR VPWR sky130_fd_sc_hd__fill_2
XFILLER_42_63 VGND VGND VPWR VPWR sky130_fd_sc_hd__decap_4
XFILLER_3_57 VGND VGND VPWR VPWR sky130_fd_sc_hd__fill_2
Xmux_bottom_track_3.mux_l1_in_0_ chany_top_in[13] chany_top_in[4] mux_bottom_track_3.mux_l1_in_4_/S
+ mux_bottom_track_3.mux_l1_in_0_/X VGND VGND VPWR VPWR sky130_fd_sc_hd__mux2_1
XFILLER_36_215 VGND VGND VPWR VPWR sky130_fd_sc_hd__fill_2
XANTENNA_mux_right_track_2.mux_l3_in_0__A1 mux_right_track_2.mux_l2_in_0_/X VGND VGND
+ VPWR VPWR sky130_fd_sc_hd__diode_2
XANTENNA_mux_bottom_track_1.mux_l1_in_3__A0 bottom_left_grid_pin_38_ VGND VGND VPWR
+ VPWR sky130_fd_sc_hd__diode_2
XFILLER_42_207 VGND VGND VPWR VPWR sky130_fd_sc_hd__decap_8
XFILLER_35_270 VGND VGND VPWR VPWR sky130_fd_sc_hd__fill_2
XANTENNA_mux_bottom_track_3.mux_l2_in_0__A0 mux_bottom_track_3.mux_l1_in_1_/X VGND
+ VGND VPWR VPWR sky130_fd_sc_hd__diode_2
XFILLER_10_115 VGND VGND VPWR VPWR sky130_fd_sc_hd__fill_2
XFILLER_12_77 VGND VGND VPWR VPWR sky130_fd_sc_hd__fill_2
XFILLER_12_88 VGND VGND VPWR VPWR sky130_fd_sc_hd__fill_2
XFILLER_37_30 VGND VGND VPWR VPWR sky130_fd_sc_hd__fill_2
XFILLER_18_248 VGND VGND VPWR VPWR sky130_fd_sc_hd__fill_2
XFILLER_18_215 VGND VGND VPWR VPWR sky130_fd_sc_hd__decap_4
XANTENNA_mux_bottom_track_5.mux_l4_in_1__S mux_bottom_track_5.mux_l4_in_1_/S VGND
+ VGND VPWR VPWR sky130_fd_sc_hd__diode_2
XANTENNA_mem_top_track_0.sky130_fd_sc_hd__dfxbp_1_0__CLK prog_clk VGND VGND VPWR VPWR
+ sky130_fd_sc_hd__diode_2
XANTENNA_mux_left_track_1.sky130_fd_sc_hd__buf_4_0__A mux_left_track_1.mux_l4_in_0_/X
+ VGND VGND VPWR VPWR sky130_fd_sc_hd__diode_2
XFILLER_5_152 VGND VGND VPWR VPWR sky130_fd_sc_hd__fill_2
XANTENNA_mux_left_track_9.mux_l3_in_1__A0 mux_left_track_9.mux_l2_in_3_/X VGND VGND
+ VPWR VPWR sky130_fd_sc_hd__diode_2
XFILLER_17_270 VGND VGND VPWR VPWR sky130_fd_sc_hd__fill_2
XFILLER_32_273 VGND VGND VPWR VPWR sky130_fd_sc_hd__fill_2
X_130_ chany_bottom_in[4] chany_top_out[5] VGND VGND VPWR VPWR sky130_fd_sc_hd__buf_2
XANTENNA_mux_top_track_0.mux_l1_in_0__A1 top_left_grid_pin_34_ VGND VGND VPWR VPWR
+ sky130_fd_sc_hd__diode_2
X_061_ chanx_right_in[13] chanx_left_out[14] VGND VGND VPWR VPWR sky130_fd_sc_hd__buf_2
XANTENNA_mux_left_track_17.mux_l2_in_3__S mux_left_track_17.mux_l2_in_1_/S VGND VGND
+ VPWR VPWR sky130_fd_sc_hd__diode_2
XANTENNA_mux_bottom_track_1.mux_l2_in_2__A0 chanx_left_in[2] VGND VGND VPWR VPWR sky130_fd_sc_hd__diode_2
XANTENNA_mux_left_track_5.mux_l2_in_6__A0 left_top_grid_pin_48_ VGND VGND VPWR VPWR
+ sky130_fd_sc_hd__diode_2
XFILLER_0_58 VGND VGND VPWR VPWR sky130_fd_sc_hd__fill_2
XFILLER_14_240 VGND VGND VPWR VPWR sky130_fd_sc_hd__fill_2
XANTENNA__135__A _135_/A VGND VGND VPWR VPWR sky130_fd_sc_hd__diode_2
XFILLER_9_56 VGND VGND VPWR VPWR sky130_fd_sc_hd__decap_3
XFILLER_9_67 VGND VGND VPWR VPWR sky130_fd_sc_hd__fill_2
XFILLER_14_251 VGND VGND VPWR VPWR sky130_fd_sc_hd__fill_2
XANTENNA_mux_right_track_0.mux_l1_in_4__S mux_right_track_0.mux_l1_in_1_/S VGND VGND
+ VPWR VPWR sky130_fd_sc_hd__diode_2
XANTENNA_mux_bottom_track_17.mux_l4_in_0__S mux_bottom_track_17.mux_l4_in_0_/S VGND
+ VGND VPWR VPWR sky130_fd_sc_hd__diode_2
XFILLER_20_210 VGND VGND VPWR VPWR sky130_fd_sc_hd__fill_2
XANTENNA_mux_left_track_1.mux_l2_in_2__S mux_left_track_1.mux_l2_in_2_/S VGND VGND
+ VPWR VPWR sky130_fd_sc_hd__diode_2
Xmux_left_track_9.sky130_fd_sc_hd__buf_4_0_ mux_left_track_9.mux_l4_in_0_/X _071_/A
+ VGND VGND VPWR VPWR sky130_fd_sc_hd__buf_1
XFILLER_20_276 VGND VGND VPWR VPWR sky130_fd_sc_hd__fill_1
XANTENNA_mem_bottom_track_9.sky130_fd_sc_hd__dfxbp_1_1__CLK prog_clk VGND VGND VPWR
+ VPWR sky130_fd_sc_hd__diode_2
XFILLER_18_98 VGND VGND VPWR VPWR sky130_fd_sc_hd__decap_3
Xmem_bottom_track_5.sky130_fd_sc_hd__dfxbp_1_2_ mux_bottom_track_5.mux_l2_in_1_/S
+ mux_bottom_track_5.mux_l3_in_2_/S mem_bottom_track_5.sky130_fd_sc_hd__dfxbp_1_2_/Q_N
+ prog_clk VGND VGND VPWR VPWR sky130_fd_sc_hd__dfxbp_1
XFILLER_34_75 VGND VGND VPWR VPWR sky130_fd_sc_hd__fill_2
XANTENNA_mux_left_track_9.mux_l4_in_0__A0 mux_left_track_9.mux_l3_in_1_/X VGND VGND
+ VPWR VPWR sky130_fd_sc_hd__diode_2
X_113_ _113_/A chany_bottom_out[2] VGND VGND VPWR VPWR sky130_fd_sc_hd__buf_2
XFILLER_7_214 VGND VGND VPWR VPWR sky130_fd_sc_hd__fill_1
XFILLER_11_232 VGND VGND VPWR VPWR sky130_fd_sc_hd__fill_2
XANTENNA_mux_right_track_4.mux_l2_in_2__S mux_right_track_4.mux_l2_in_2_/S VGND VGND
+ VPWR VPWR sky130_fd_sc_hd__diode_2
XANTENNA_mux_top_track_24.mux_l1_in_0__S mux_top_track_24.mux_l1_in_0_/S VGND VGND
+ VPWR VPWR sky130_fd_sc_hd__diode_2
XFILLER_7_258 VGND VGND VPWR VPWR sky130_fd_sc_hd__fill_2
X_044_ _044_/HI _044_/LO VGND VGND VPWR VPWR sky130_fd_sc_hd__conb_1
XFILLER_38_107 VGND VGND VPWR VPWR sky130_fd_sc_hd__decap_3
XFILLER_15_7 VGND VGND VPWR VPWR sky130_fd_sc_hd__fill_2
XANTENNA_mux_left_track_5.mux_l3_in_0__S mux_left_track_5.mux_l3_in_3_/S VGND VGND
+ VPWR VPWR sky130_fd_sc_hd__diode_2
XFILLER_29_118 VGND VGND VPWR VPWR sky130_fd_sc_hd__fill_2
XFILLER_37_184 VGND VGND VPWR VPWR sky130_fd_sc_hd__decap_3
XFILLER_37_140 VGND VGND VPWR VPWR sky130_fd_sc_hd__fill_2
XANTENNA_mux_bottom_track_1.mux_l3_in_1__A0 mux_bottom_track_1.mux_l2_in_3_/X VGND
+ VGND VPWR VPWR sky130_fd_sc_hd__diode_2
XANTENNA_mux_right_track_8.mux_l3_in_0__S mux_right_track_8.mux_l3_in_0_/S VGND VGND
+ VPWR VPWR sky130_fd_sc_hd__diode_2
XFILLER_20_77 VGND VGND VPWR VPWR sky130_fd_sc_hd__fill_2
XFILLER_4_228 VGND VGND VPWR VPWR sky130_fd_sc_hd__fill_2
XFILLER_29_97 VGND VGND VPWR VPWR sky130_fd_sc_hd__fill_2
XFILLER_29_53 VGND VGND VPWR VPWR sky130_fd_sc_hd__fill_2
XFILLER_29_31 VGND VGND VPWR VPWR sky130_fd_sc_hd__fill_2
XFILLER_28_140 VGND VGND VPWR VPWR sky130_fd_sc_hd__fill_2
XANTENNA_mux_top_track_4.mux_l3_in_2__S mux_top_track_4.mux_l3_in_0_/S VGND VGND VPWR
+ VPWR sky130_fd_sc_hd__diode_2
XFILLER_28_173 VGND VGND VPWR VPWR sky130_fd_sc_hd__fill_2
XFILLER_19_184 VGND VGND VPWR VPWR sky130_fd_sc_hd__decap_3
XFILLER_34_198 VGND VGND VPWR VPWR sky130_fd_sc_hd__fill_2
XANTENNA_mux_top_track_8.mux_l4_in_0__S mux_top_track_8.mux_l4_in_0_/S VGND VGND VPWR
+ VPWR sky130_fd_sc_hd__diode_2
XFILLER_15_11 VGND VGND VPWR VPWR sky130_fd_sc_hd__decap_4
XFILLER_31_98 VGND VGND VPWR VPWR sky130_fd_sc_hd__fill_1
XFILLER_0_231 VGND VGND VPWR VPWR sky130_fd_sc_hd__fill_2
Xmux_right_track_8.mux_l2_in_3_ _035_/HI chanx_left_in[16] mux_right_track_8.mux_l2_in_1_/S
+ mux_right_track_8.mux_l2_in_3_/X VGND VGND VPWR VPWR sky130_fd_sc_hd__mux2_1
XANTENNA_mux_bottom_track_3.mux_l1_in_1__A1 chanx_right_in[4] VGND VGND VPWR VPWR
+ sky130_fd_sc_hd__diode_2
XFILLER_31_179 VGND VGND VPWR VPWR sky130_fd_sc_hd__fill_2
XPHY_193 VGND VPWR sky130_fd_sc_hd__tapvpwrvgnd_1
XPHY_182 VGND VPWR sky130_fd_sc_hd__tapvpwrvgnd_1
XPHY_171 VGND VPWR sky130_fd_sc_hd__tapvpwrvgnd_1
XPHY_160 VGND VPWR sky130_fd_sc_hd__tapvpwrvgnd_1
XFILLER_16_187 VGND VGND VPWR VPWR sky130_fd_sc_hd__fill_2
XANTENNA_mux_bottom_track_1.mux_l4_in_0__A0 mux_bottom_track_1.mux_l3_in_1_/X VGND
+ VGND VPWR VPWR sky130_fd_sc_hd__diode_2
XFILLER_39_224 VGND VGND VPWR VPWR sky130_fd_sc_hd__fill_2
Xmux_left_track_25.sky130_fd_sc_hd__buf_4_0_ mux_left_track_25.mux_l4_in_0_/X _063_/A
+ VGND VGND VPWR VPWR sky130_fd_sc_hd__buf_1
Xmux_top_track_0.mux_l2_in_3_ _036_/HI chanx_left_in[12] mux_top_track_0.mux_l2_in_2_/S
+ mux_top_track_0.mux_l2_in_3_/X VGND VGND VPWR VPWR sky130_fd_sc_hd__mux2_1
XFILLER_22_113 VGND VGND VPWR VPWR sky130_fd_sc_hd__fill_2
XFILLER_22_157 VGND VGND VPWR VPWR sky130_fd_sc_hd__decap_3
XANTENNA_mux_left_track_9.mux_l2_in_2__A1 chany_bottom_in[16] VGND VGND VPWR VPWR
+ sky130_fd_sc_hd__diode_2
XFILLER_13_113 VGND VGND VPWR VPWR sky130_fd_sc_hd__decap_3
XFILLER_13_179 VGND VGND VPWR VPWR sky130_fd_sc_hd__fill_2
XFILLER_42_86 VGND VGND VPWR VPWR sky130_fd_sc_hd__decap_4
XANTENNA_mux_left_track_33.mux_l1_in_1__S mux_left_track_33.mux_l1_in_3_/S VGND VGND
+ VPWR VPWR sky130_fd_sc_hd__diode_2
XFILLER_21_190 VGND VGND VPWR VPWR sky130_fd_sc_hd__decap_4
XFILLER_36_249 VGND VGND VPWR VPWR sky130_fd_sc_hd__decap_4
XANTENNA_mux_right_track_32.mux_l2_in_1__S mux_right_track_32.mux_l2_in_0_/S VGND
+ VGND VPWR VPWR sky130_fd_sc_hd__diode_2
XANTENNA_mux_bottom_track_1.mux_l1_in_3__A1 bottom_left_grid_pin_36_ VGND VGND VPWR
+ VPWR sky130_fd_sc_hd__diode_2
XFILLER_8_161 VGND VGND VPWR VPWR sky130_fd_sc_hd__fill_2
XFILLER_12_190 VGND VGND VPWR VPWR sky130_fd_sc_hd__decap_4
XANTENNA_mem_left_track_5.sky130_fd_sc_hd__dfxbp_1_4__CLK prog_clk VGND VGND VPWR
+ VPWR sky130_fd_sc_hd__diode_2
XANTENNA_mux_bottom_track_3.mux_l2_in_0__A1 mux_bottom_track_3.mux_l1_in_0_/X VGND
+ VGND VPWR VPWR sky130_fd_sc_hd__diode_2
XFILLER_10_149 VGND VGND VPWR VPWR sky130_fd_sc_hd__fill_2
XFILLER_12_23 VGND VGND VPWR VPWR sky130_fd_sc_hd__fill_2
XFILLER_37_53 VGND VGND VPWR VPWR sky130_fd_sc_hd__fill_2
XFILLER_33_219 VGND VGND VPWR VPWR sky130_fd_sc_hd__fill_2
XFILLER_41_252 VGND VGND VPWR VPWR sky130_fd_sc_hd__fill_2
Xmux_top_track_0.mux_l1_in_4_ chanx_left_in[0] chany_bottom_in[12] mux_top_track_0.mux_l1_in_1_/S
+ mux_top_track_0.mux_l1_in_4_/X VGND VGND VPWR VPWR sky130_fd_sc_hd__mux2_1
XANTENNA_mux_right_track_4.mux_l2_in_5__S mux_right_track_4.mux_l2_in_2_/S VGND VGND
+ VPWR VPWR sky130_fd_sc_hd__diode_2
XFILLER_5_131 VGND VGND VPWR VPWR sky130_fd_sc_hd__fill_2
XFILLER_5_175 VGND VGND VPWR VPWR sky130_fd_sc_hd__fill_2
XFILLER_5_197 VGND VGND VPWR VPWR sky130_fd_sc_hd__fill_2
XFILLER_38_6 VGND VGND VPWR VPWR sky130_fd_sc_hd__fill_2
XANTENNA_mux_left_track_5.mux_l3_in_3__S mux_left_track_5.mux_l3_in_3_/S VGND VGND
+ VPWR VPWR sky130_fd_sc_hd__diode_2
XANTENNA_mux_left_track_9.mux_l3_in_1__A1 mux_left_track_9.mux_l2_in_2_/X VGND VGND
+ VPWR VPWR sky130_fd_sc_hd__diode_2
XFILLER_24_219 VGND VGND VPWR VPWR sky130_fd_sc_hd__fill_2
XANTENNA_mem_right_track_0.sky130_fd_sc_hd__dfxbp_1_1__CLK prog_clk VGND VGND VPWR
+ VPWR sky130_fd_sc_hd__diode_2
Xmux_right_track_8.mux_l4_in_0_ mux_right_track_8.mux_l3_in_1_/X mux_right_track_8.mux_l3_in_0_/X
+ mux_right_track_8.mux_l4_in_0_/S mux_right_track_8.mux_l4_in_0_/X VGND VGND VPWR
+ VPWR sky130_fd_sc_hd__mux2_1
XFILLER_23_274 VGND VGND VPWR VPWR sky130_fd_sc_hd__decap_3
XFILLER_23_11 VGND VGND VPWR VPWR sky130_fd_sc_hd__decap_3
X_060_ chanx_right_in[14] chanx_left_out[15] VGND VGND VPWR VPWR sky130_fd_sc_hd__buf_2
Xmux_top_track_0.mux_l4_in_0_ mux_top_track_0.mux_l3_in_1_/X mux_top_track_0.mux_l3_in_0_/X
+ mux_top_track_0.mux_l4_in_0_/S mux_top_track_0.mux_l4_in_0_/X VGND VGND VPWR VPWR
+ sky130_fd_sc_hd__mux2_1
XFILLER_3_3 VGND VGND VPWR VPWR sky130_fd_sc_hd__fill_2
XFILLER_2_145 VGND VGND VPWR VPWR sky130_fd_sc_hd__fill_2
XFILLER_2_123 VGND VGND VPWR VPWR sky130_fd_sc_hd__decap_3
XANTENNA_mux_bottom_track_1.mux_l2_in_2__A1 mux_bottom_track_1.mux_l1_in_4_/X VGND
+ VGND VPWR VPWR sky130_fd_sc_hd__diode_2
XFILLER_2_167 VGND VGND VPWR VPWR sky130_fd_sc_hd__decap_4
XANTENNA_mux_top_track_16.mux_l2_in_0__S mux_top_track_16.mux_l2_in_1_/S VGND VGND
+ VPWR VPWR sky130_fd_sc_hd__diode_2
XANTENNA_mux_left_track_5.mux_l2_in_6__A1 left_top_grid_pin_47_ VGND VGND VPWR VPWR
+ sky130_fd_sc_hd__diode_2
XFILLER_9_35 VGND VGND VPWR VPWR sky130_fd_sc_hd__fill_2
XFILLER_14_263 VGND VGND VPWR VPWR sky130_fd_sc_hd__fill_2
XFILLER_36_3 VGND VGND VPWR VPWR sky130_fd_sc_hd__decap_4
XANTENNA_mux_right_track_4.mux_l2_in_2__A0 right_top_grid_pin_45_ VGND VGND VPWR VPWR
+ sky130_fd_sc_hd__diode_2
XANTENNA__061__A chanx_right_in[13] VGND VGND VPWR VPWR sky130_fd_sc_hd__diode_2
Xmem_bottom_track_5.sky130_fd_sc_hd__dfxbp_1_1_ mux_bottom_track_5.mux_l1_in_0_/S
+ mux_bottom_track_5.mux_l2_in_1_/S mem_bottom_track_5.sky130_fd_sc_hd__dfxbp_1_1_/Q_N
+ prog_clk VGND VGND VPWR VPWR sky130_fd_sc_hd__dfxbp_1
XFILLER_34_87 VGND VGND VPWR VPWR sky130_fd_sc_hd__fill_2
XANTENNA_mux_left_track_9.mux_l4_in_0__A1 mux_left_track_9.mux_l3_in_0_/X VGND VGND
+ VPWR VPWR sky130_fd_sc_hd__diode_2
X_112_ chany_top_in[2] chany_bottom_out[3] VGND VGND VPWR VPWR sky130_fd_sc_hd__buf_2
X_043_ _043_/HI _043_/LO VGND VGND VPWR VPWR sky130_fd_sc_hd__conb_1
XFILLER_38_119 VGND VGND VPWR VPWR sky130_fd_sc_hd__decap_4
XANTENNA_mem_left_track_9.sky130_fd_sc_hd__dfxbp_1_1__CLK prog_clk VGND VGND VPWR
+ VPWR sky130_fd_sc_hd__diode_2
Xmux_right_track_8.mux_l3_in_1_ mux_right_track_8.mux_l2_in_3_/X mux_right_track_8.mux_l2_in_2_/X
+ mux_right_track_8.mux_l3_in_0_/S mux_right_track_8.mux_l3_in_1_/X VGND VGND VPWR
+ VPWR sky130_fd_sc_hd__mux2_1
XFILLER_6_270 VGND VGND VPWR VPWR sky130_fd_sc_hd__fill_2
XANTENNA_mem_top_track_2.sky130_fd_sc_hd__dfxbp_1_2__D mux_top_track_2.mux_l2_in_1_/S
+ VGND VGND VPWR VPWR sky130_fd_sc_hd__diode_2
XANTENNA_mem_top_track_32.sky130_fd_sc_hd__dfxbp_1_2__CLK prog_clk VGND VGND VPWR
+ VPWR sky130_fd_sc_hd__diode_2
XFILLER_37_163 VGND VGND VPWR VPWR sky130_fd_sc_hd__decap_4
Xmux_top_track_0.mux_l3_in_1_ mux_top_track_0.mux_l2_in_3_/X mux_top_track_0.mux_l2_in_2_/X
+ mux_top_track_0.mux_l3_in_1_/S mux_top_track_0.mux_l3_in_1_/X VGND VGND VPWR VPWR
+ sky130_fd_sc_hd__mux2_1
XANTENNA_mux_bottom_track_1.mux_l3_in_1__A1 mux_bottom_track_1.mux_l2_in_2_/X VGND
+ VGND VPWR VPWR sky130_fd_sc_hd__diode_2
XANTENNA__056__A chanx_right_in[18] VGND VGND VPWR VPWR sky130_fd_sc_hd__diode_2
XFILLER_20_89 VGND VGND VPWR VPWR sky130_fd_sc_hd__fill_1
XFILLER_4_207 VGND VGND VPWR VPWR sky130_fd_sc_hd__fill_2
XFILLER_29_87 VGND VGND VPWR VPWR sky130_fd_sc_hd__fill_1
XFILLER_28_152 VGND VGND VPWR VPWR sky130_fd_sc_hd__fill_1
XFILLER_28_185 VGND VGND VPWR VPWR sky130_fd_sc_hd__fill_2
XANTENNA_mux_right_track_4.mux_l3_in_1__A0 mux_right_track_4.mux_l2_in_3_/X VGND VGND
+ VPWR VPWR sky130_fd_sc_hd__diode_2
XANTENNA_mux_bottom_track_3.mux_l2_in_1__S mux_bottom_track_3.mux_l2_in_0_/S VGND
+ VGND VPWR VPWR sky130_fd_sc_hd__diode_2
XFILLER_6_58 VGND VGND VPWR VPWR sky130_fd_sc_hd__fill_2
XFILLER_34_133 VGND VGND VPWR VPWR sky130_fd_sc_hd__fill_1
XFILLER_19_163 VGND VGND VPWR VPWR sky130_fd_sc_hd__decap_3
XFILLER_40_158 VGND VGND VPWR VPWR sky130_fd_sc_hd__fill_2
XFILLER_25_133 VGND VGND VPWR VPWR sky130_fd_sc_hd__fill_2
XANTENNA_mux_bottom_track_9.mux_l1_in_2__S mux_bottom_track_9.mux_l1_in_1_/S VGND
+ VGND VPWR VPWR sky130_fd_sc_hd__diode_2
XFILLER_31_66 VGND VGND VPWR VPWR sky130_fd_sc_hd__fill_2
XFILLER_31_11 VGND VGND VPWR VPWR sky130_fd_sc_hd__decap_4
XANTENNA_mux_left_track_25.mux_l2_in_1__S mux_left_track_25.mux_l2_in_3_/S VGND VGND
+ VPWR VPWR sky130_fd_sc_hd__diode_2
XFILLER_0_243 VGND VGND VPWR VPWR sky130_fd_sc_hd__fill_2
Xmux_right_track_8.mux_l2_in_2_ chanx_left_in[6] chany_bottom_in[16] mux_right_track_8.mux_l2_in_1_/S
+ mux_right_track_8.mux_l2_in_2_/X VGND VGND VPWR VPWR sky130_fd_sc_hd__mux2_1
XFILLER_16_111 VGND VGND VPWR VPWR sky130_fd_sc_hd__fill_2
XFILLER_16_166 VGND VGND VPWR VPWR sky130_fd_sc_hd__fill_2
XFILLER_31_169 VGND VGND VPWR VPWR sky130_fd_sc_hd__fill_1
XFILLER_31_114 VGND VGND VPWR VPWR sky130_fd_sc_hd__fill_2
XPHY_194 VGND VPWR sky130_fd_sc_hd__tapvpwrvgnd_1
XPHY_183 VGND VPWR sky130_fd_sc_hd__tapvpwrvgnd_1
XPHY_172 VGND VPWR sky130_fd_sc_hd__tapvpwrvgnd_1
XANTENNA_mux_bottom_track_1.mux_l4_in_0__A1 mux_bottom_track_1.mux_l3_in_0_/X VGND
+ VGND VPWR VPWR sky130_fd_sc_hd__diode_2
XPHY_150 VGND VPWR sky130_fd_sc_hd__tapvpwrvgnd_1
XPHY_161 VGND VPWR sky130_fd_sc_hd__tapvpwrvgnd_1
XANTENNA_mux_right_track_24.mux_l3_in_1__S mux_right_track_24.mux_l3_in_1_/S VGND
+ VGND VPWR VPWR sky130_fd_sc_hd__diode_2
Xmux_top_track_0.mux_l2_in_2_ chanx_left_in[2] mux_top_track_0.mux_l1_in_4_/X mux_top_track_0.mux_l2_in_2_/S
+ mux_top_track_0.mux_l2_in_2_/X VGND VGND VPWR VPWR sky130_fd_sc_hd__mux2_1
XFILLER_39_236 VGND VGND VPWR VPWR sky130_fd_sc_hd__decap_8
XFILLER_39_203 VGND VGND VPWR VPWR sky130_fd_sc_hd__fill_2
XANTENNA_mem_top_track_24.sky130_fd_sc_hd__dfxbp_1_3__CLK prog_clk VGND VGND VPWR
+ VPWR sky130_fd_sc_hd__diode_2
XFILLER_22_147 VGND VGND VPWR VPWR sky130_fd_sc_hd__fill_2
XANTENNA_mem_right_track_32.sky130_fd_sc_hd__dfxbp_1_0__CLK prog_clk VGND VGND VPWR
+ VPWR sky130_fd_sc_hd__diode_2
XANTENNA_mux_top_track_2.mux_l1_in_1__A0 top_left_grid_pin_41_ VGND VGND VPWR VPWR
+ sky130_fd_sc_hd__diode_2
XANTENNA_mem_bottom_track_3.sky130_fd_sc_hd__dfxbp_1_2__D mux_bottom_track_3.mux_l2_in_0_/S
+ VGND VGND VPWR VPWR sky130_fd_sc_hd__diode_2
XANTENNA_mux_right_track_4.mux_l4_in_0__A0 mux_right_track_4.mux_l3_in_1_/X VGND VGND
+ VPWR VPWR sky130_fd_sc_hd__diode_2
XFILLER_26_55 VGND VGND VPWR VPWR sky130_fd_sc_hd__fill_2
XFILLER_26_88 VGND VGND VPWR VPWR sky130_fd_sc_hd__fill_2
XFILLER_9_129 VGND VGND VPWR VPWR sky130_fd_sc_hd__fill_2
XFILLER_13_136 VGND VGND VPWR VPWR sky130_fd_sc_hd__fill_2
XFILLER_13_147 VGND VGND VPWR VPWR sky130_fd_sc_hd__fill_1