* NGSPICE file created from sb_1__0_.ext - technology: sky130A

* Black-box entry subcircuit for sky130_fd_sc_hd__decap_3 abstract view
.subckt sky130_fd_sc_hd__decap_3 VGND VNB VPB VPWR
.ends

* Black-box entry subcircuit for sky130_fd_sc_hd__dfxtp_1 abstract view
.subckt sky130_fd_sc_hd__dfxtp_1 D Q CLK VGND VNB VPB VPWR
.ends

* Black-box entry subcircuit for sky130_fd_sc_hd__fill_2 abstract view
.subckt sky130_fd_sc_hd__fill_2 VGND VNB VPB VPWR
.ends

* Black-box entry subcircuit for sky130_fd_sc_hd__decap_4 abstract view
.subckt sky130_fd_sc_hd__decap_4 VGND VNB VPB VPWR
.ends

* Black-box entry subcircuit for sky130_fd_sc_hd__decap_12 abstract view
.subckt sky130_fd_sc_hd__decap_12 VGND VNB VPB VPWR
.ends

* Black-box entry subcircuit for sky130_fd_sc_hd__buf_2 abstract view
.subckt sky130_fd_sc_hd__buf_2 A X VGND VNB VPB VPWR
.ends

* Black-box entry subcircuit for sky130_fd_sc_hd__mux2_1 abstract view
.subckt sky130_fd_sc_hd__mux2_1 A0 A1 S X VGND VNB VPB VPWR
.ends

* Black-box entry subcircuit for sky130_fd_sc_hd__clkbuf_1 abstract view
.subckt sky130_fd_sc_hd__clkbuf_1 A X VGND VNB VPB VPWR
.ends

* Black-box entry subcircuit for sky130_fd_sc_hd__conb_1 abstract view
.subckt sky130_fd_sc_hd__conb_1 HI LO VGND VNB VPB VPWR
.ends

* Black-box entry subcircuit for sky130_fd_sc_hd__decap_6 abstract view
.subckt sky130_fd_sc_hd__decap_6 VGND VNB VPB VPWR
.ends

* Black-box entry subcircuit for sky130_fd_sc_hd__tapvpwrvgnd_1 abstract view
.subckt sky130_fd_sc_hd__tapvpwrvgnd_1 VGND VPWR
.ends

* Black-box entry subcircuit for sky130_fd_sc_hd__decap_8 abstract view
.subckt sky130_fd_sc_hd__decap_8 VGND VNB VPB VPWR
.ends

* Black-box entry subcircuit for sky130_fd_sc_hd__buf_4 abstract view
.subckt sky130_fd_sc_hd__buf_4 A X VGND VNB VPB VPWR
.ends

* Black-box entry subcircuit for sky130_fd_sc_hd__fill_1 abstract view
.subckt sky130_fd_sc_hd__fill_1 VGND VNB VPB VPWR
.ends

* Black-box entry subcircuit for sky130_fd_sc_hd__clkbuf_16 abstract view
.subckt sky130_fd_sc_hd__clkbuf_16 A X VGND VNB VPB VPWR
.ends

* Black-box entry subcircuit for sky130_fd_sc_hd__diode_2 abstract view
.subckt sky130_fd_sc_hd__diode_2 DIODE VGND VNB VPB VPWR
.ends

.subckt sb_1__0_ ccff_head ccff_tail chanx_left_in[0] chanx_left_in[10] chanx_left_in[11]
+ chanx_left_in[12] chanx_left_in[13] chanx_left_in[14] chanx_left_in[15] chanx_left_in[16]
+ chanx_left_in[17] chanx_left_in[18] chanx_left_in[19] chanx_left_in[1] chanx_left_in[2]
+ chanx_left_in[3] chanx_left_in[4] chanx_left_in[5] chanx_left_in[6] chanx_left_in[7]
+ chanx_left_in[8] chanx_left_in[9] chanx_left_out[0] chanx_left_out[10] chanx_left_out[11]
+ chanx_left_out[12] chanx_left_out[13] chanx_left_out[14] chanx_left_out[15] chanx_left_out[16]
+ chanx_left_out[17] chanx_left_out[18] chanx_left_out[19] chanx_left_out[1] chanx_left_out[2]
+ chanx_left_out[3] chanx_left_out[4] chanx_left_out[5] chanx_left_out[6] chanx_left_out[7]
+ chanx_left_out[8] chanx_left_out[9] chanx_right_in[0] chanx_right_in[10] chanx_right_in[11]
+ chanx_right_in[12] chanx_right_in[13] chanx_right_in[14] chanx_right_in[15] chanx_right_in[16]
+ chanx_right_in[17] chanx_right_in[18] chanx_right_in[19] chanx_right_in[1] chanx_right_in[2]
+ chanx_right_in[3] chanx_right_in[4] chanx_right_in[5] chanx_right_in[6] chanx_right_in[7]
+ chanx_right_in[8] chanx_right_in[9] chanx_right_out[0] chanx_right_out[10] chanx_right_out[11]
+ chanx_right_out[12] chanx_right_out[13] chanx_right_out[14] chanx_right_out[15]
+ chanx_right_out[16] chanx_right_out[17] chanx_right_out[18] chanx_right_out[19]
+ chanx_right_out[1] chanx_right_out[2] chanx_right_out[3] chanx_right_out[4] chanx_right_out[5]
+ chanx_right_out[6] chanx_right_out[7] chanx_right_out[8] chanx_right_out[9] chany_top_in[0]
+ chany_top_in[10] chany_top_in[11] chany_top_in[12] chany_top_in[13] chany_top_in[14]
+ chany_top_in[15] chany_top_in[16] chany_top_in[17] chany_top_in[18] chany_top_in[19]
+ chany_top_in[1] chany_top_in[2] chany_top_in[3] chany_top_in[4] chany_top_in[5]
+ chany_top_in[6] chany_top_in[7] chany_top_in[8] chany_top_in[9] chany_top_out[0]
+ chany_top_out[10] chany_top_out[11] chany_top_out[12] chany_top_out[13] chany_top_out[14]
+ chany_top_out[15] chany_top_out[16] chany_top_out[17] chany_top_out[18] chany_top_out[19]
+ chany_top_out[1] chany_top_out[2] chany_top_out[3] chany_top_out[4] chany_top_out[5]
+ chany_top_out[6] chany_top_out[7] chany_top_out[8] chany_top_out[9] left_bottom_grid_pin_11_
+ left_bottom_grid_pin_13_ left_bottom_grid_pin_15_ left_bottom_grid_pin_17_ left_bottom_grid_pin_1_
+ left_bottom_grid_pin_3_ left_bottom_grid_pin_5_ left_bottom_grid_pin_7_ left_bottom_grid_pin_9_
+ prog_clk right_bottom_grid_pin_11_ right_bottom_grid_pin_13_ right_bottom_grid_pin_15_
+ right_bottom_grid_pin_17_ right_bottom_grid_pin_1_ right_bottom_grid_pin_3_ right_bottom_grid_pin_5_
+ right_bottom_grid_pin_7_ right_bottom_grid_pin_9_ top_left_grid_pin_42_ top_left_grid_pin_43_
+ top_left_grid_pin_44_ top_left_grid_pin_45_ top_left_grid_pin_46_ top_left_grid_pin_47_
+ top_left_grid_pin_48_ top_left_grid_pin_49_ VPWR VGND
XFILLER_22_122 VGND VGND VPWR VPWR sky130_fd_sc_hd__decap_3
Xmem_right_track_2.sky130_fd_sc_hd__dfxtp_1_0_ mux_right_track_0.mux_l4_in_0_/S mux_right_track_2.mux_l1_in_1_/S
+ clkbuf_3_7_0_prog_clk/X VGND VGND VPWR VPWR sky130_fd_sc_hd__dfxtp_1
Xmem_left_track_17.sky130_fd_sc_hd__dfxtp_1_0_ mux_left_track_9.mux_l4_in_0_/S mux_left_track_17.mux_l1_in_0_/S
+ clkbuf_3_2_0_prog_clk/X VGND VGND VPWR VPWR sky130_fd_sc_hd__dfxtp_1
XFILLER_12_10 VGND VGND VPWR VPWR sky130_fd_sc_hd__fill_2
XFILLER_12_32 VGND VGND VPWR VPWR sky130_fd_sc_hd__decap_4
XFILLER_12_65 VGND VGND VPWR VPWR sky130_fd_sc_hd__fill_2
XFILLER_5_162 VGND VGND VPWR VPWR sky130_fd_sc_hd__decap_12
XFILLER_5_184 VGND VGND VPWR VPWR sky130_fd_sc_hd__decap_12
X_062_ chanx_right_in[12] chanx_left_out[13] VGND VGND VPWR VPWR sky130_fd_sc_hd__buf_2
Xmem_right_track_8.sky130_fd_sc_hd__dfxtp_1_1_ mux_right_track_8.mux_l1_in_0_/S mux_right_track_8.mux_l2_in_0_/S
+ clkbuf_3_6_0_prog_clk/X VGND VGND VPWR VPWR sky130_fd_sc_hd__dfxtp_1
Xmux_top_track_10.mux_l3_in_0_ mux_top_track_10.mux_l2_in_1_/X mux_top_track_10.mux_l2_in_0_/X
+ mux_top_track_10.mux_l3_in_0_/S mux_top_track_10.mux_l3_in_0_/X VGND VGND VPWR VPWR
+ sky130_fd_sc_hd__mux2_1
XFILLER_2_154 VGND VGND VPWR VPWR sky130_fd_sc_hd__decap_12
XFILLER_2_132 VGND VGND VPWR VPWR sky130_fd_sc_hd__decap_12
Xclkbuf_3_4_0_prog_clk clkbuf_2_2_0_prog_clk/X clkbuf_3_4_0_prog_clk/X VGND VGND VPWR
+ VPWR sky130_fd_sc_hd__clkbuf_1
X_114_ _114_/A chany_top_out[1] VGND VGND VPWR VPWR sky130_fd_sc_hd__buf_2
X_045_ _045_/HI _045_/LO VGND VGND VPWR VPWR sky130_fd_sc_hd__conb_1
XFILLER_18_53 VGND VGND VPWR VPWR sky130_fd_sc_hd__fill_2
Xmux_top_track_10.mux_l2_in_1_ _030_/HI chanx_left_in[9] mux_top_track_10.mux_l2_in_0_/S
+ mux_top_track_10.mux_l2_in_1_/X VGND VGND VPWR VPWR sky130_fd_sc_hd__mux2_1
X_028_ _028_/HI _028_/LO VGND VGND VPWR VPWR sky130_fd_sc_hd__conb_1
XFILLER_13_3 VGND VGND VPWR VPWR sky130_fd_sc_hd__decap_3
XFILLER_6_56 VGND VGND VPWR VPWR sky130_fd_sc_hd__decap_12
XFILLER_31_42 VGND VGND VPWR VPWR sky130_fd_sc_hd__decap_12
XFILLER_31_20 VGND VGND VPWR VPWR sky130_fd_sc_hd__decap_6
XFILLER_25_120 VGND VGND VPWR VPWR sky130_fd_sc_hd__fill_2
XFILLER_1_208 VGND VGND VPWR VPWR sky130_fd_sc_hd__decap_12
XPHY_181 VGND VPWR sky130_fd_sc_hd__tapvpwrvgnd_1
XFILLER_31_86 VGND VGND VPWR VPWR sky130_fd_sc_hd__decap_12
XPHY_170 VGND VPWR sky130_fd_sc_hd__tapvpwrvgnd_1
XFILLER_26_75 VGND VGND VPWR VPWR sky130_fd_sc_hd__decap_3
XFILLER_13_167 VGND VGND VPWR VPWR sky130_fd_sc_hd__decap_4
XFILLER_9_116 VGND VGND VPWR VPWR sky130_fd_sc_hd__decap_6
XFILLER_27_215 VGND VGND VPWR VPWR sky130_fd_sc_hd__decap_4
XFILLER_18_215 VGND VGND VPWR VPWR sky130_fd_sc_hd__decap_4
XFILLER_10_104 VGND VGND VPWR VPWR sky130_fd_sc_hd__fill_2
XFILLER_24_218 VGND VGND VPWR VPWR sky130_fd_sc_hd__fill_2
XFILLER_5_174 VGND VGND VPWR VPWR sky130_fd_sc_hd__decap_8
XFILLER_5_196 VGND VGND VPWR VPWR sky130_fd_sc_hd__decap_12
XFILLER_23_54 VGND VGND VPWR VPWR sky130_fd_sc_hd__fill_2
XFILLER_15_218 VGND VGND VPWR VPWR sky130_fd_sc_hd__fill_2
X_061_ chanx_right_in[13] chanx_left_out[14] VGND VGND VPWR VPWR sky130_fd_sc_hd__buf_2
Xmem_top_track_10.sky130_fd_sc_hd__dfxtp_1_2_ mux_top_track_10.mux_l2_in_0_/S mux_top_track_10.mux_l3_in_0_/S
+ clkbuf_3_7_0_prog_clk/X VGND VGND VPWR VPWR sky130_fd_sc_hd__dfxtp_1
Xmem_right_track_8.sky130_fd_sc_hd__dfxtp_1_0_ mux_right_track_4.mux_l4_in_0_/S mux_right_track_8.mux_l1_in_0_/S
+ clkbuf_3_1_0_prog_clk/X VGND VGND VPWR VPWR sky130_fd_sc_hd__dfxtp_1
XFILLER_2_166 VGND VGND VPWR VPWR sky130_fd_sc_hd__decap_12
XFILLER_2_144 VGND VGND VPWR VPWR sky130_fd_sc_hd__decap_8
XFILLER_9_45 VGND VGND VPWR VPWR sky130_fd_sc_hd__decap_12
Xmux_left_track_9.sky130_fd_sc_hd__buf_4_0_ mux_left_track_9.mux_l4_in_0_/X _071_/A
+ VGND VGND VPWR VPWR sky130_fd_sc_hd__buf_4
X_113_ _113_/A chany_top_out[2] VGND VGND VPWR VPWR sky130_fd_sc_hd__buf_2
X_044_ _044_/HI _044_/LO VGND VGND VPWR VPWR sky130_fd_sc_hd__conb_1
XFILLER_18_21 VGND VGND VPWR VPWR sky130_fd_sc_hd__fill_2
Xmux_top_track_10.mux_l2_in_0_ chanx_right_in[19] mux_top_track_10.mux_l1_in_0_/X
+ mux_top_track_10.mux_l2_in_0_/S mux_top_track_10.mux_l2_in_0_/X VGND VGND VPWR VPWR
+ sky130_fd_sc_hd__mux2_1
XFILLER_28_151 VGND VGND VPWR VPWR sky130_fd_sc_hd__fill_2
XFILLER_6_68 VGND VGND VPWR VPWR sky130_fd_sc_hd__decap_12
XFILLER_25_154 VGND VGND VPWR VPWR sky130_fd_sc_hd__decap_4
XFILLER_25_143 VGND VGND VPWR VPWR sky130_fd_sc_hd__fill_2
XFILLER_25_132 VGND VGND VPWR VPWR sky130_fd_sc_hd__fill_2
XPHY_182 VGND VPWR sky130_fd_sc_hd__tapvpwrvgnd_1
XFILLER_31_98 VGND VGND VPWR VPWR sky130_fd_sc_hd__decap_4
XFILLER_31_54 VGND VGND VPWR VPWR sky130_fd_sc_hd__decap_6
XPHY_171 VGND VPWR sky130_fd_sc_hd__tapvpwrvgnd_1
XPHY_160 VGND VPWR sky130_fd_sc_hd__tapvpwrvgnd_1
Xmux_right_track_8.mux_l2_in_3_ _028_/HI chanx_left_in[16] mux_right_track_8.mux_l2_in_0_/S
+ mux_right_track_8.mux_l2_in_3_/X VGND VGND VPWR VPWR sky130_fd_sc_hd__mux2_1
Xmux_left_track_25.sky130_fd_sc_hd__buf_4_0_ mux_left_track_25.mux_l3_in_0_/X _063_/A
+ VGND VGND VPWR VPWR sky130_fd_sc_hd__buf_4
XFILLER_22_179 VGND VGND VPWR VPWR sky130_fd_sc_hd__decap_3
Xmux_top_track_0.mux_l2_in_3_ _029_/HI chanx_left_in[2] mux_top_track_0.mux_l2_in_0_/S
+ mux_top_track_0.mux_l2_in_3_/X VGND VGND VPWR VPWR sky130_fd_sc_hd__mux2_1
XFILLER_26_87 VGND VGND VPWR VPWR sky130_fd_sc_hd__decap_4
XFILLER_26_32 VGND VGND VPWR VPWR sky130_fd_sc_hd__decap_4
XFILLER_9_139 VGND VGND VPWR VPWR sky130_fd_sc_hd__fill_2
XFILLER_6_109 VGND VGND VPWR VPWR sky130_fd_sc_hd__fill_2
XFILLER_5_120 VGND VGND VPWR VPWR sky130_fd_sc_hd__fill_2
Xmux_right_track_8.mux_l4_in_0_ mux_right_track_8.mux_l3_in_1_/X mux_right_track_8.mux_l3_in_0_/X
+ mux_right_track_8.mux_l4_in_0_/S mux_right_track_8.mux_l4_in_0_/X VGND VGND VPWR
+ VPWR sky130_fd_sc_hd__mux2_1
X_060_ chanx_right_in[14] chanx_left_out[15] VGND VGND VPWR VPWR sky130_fd_sc_hd__buf_2
XFILLER_23_11 VGND VGND VPWR VPWR sky130_fd_sc_hd__decap_3
Xmem_top_track_10.sky130_fd_sc_hd__dfxtp_1_1_ mux_top_track_10.mux_l1_in_0_/S mux_top_track_10.mux_l2_in_0_/S
+ clkbuf_3_7_0_prog_clk/X VGND VGND VPWR VPWR sky130_fd_sc_hd__dfxtp_1
XFILLER_3_3 VGND VGND VPWR VPWR sky130_fd_sc_hd__decap_12
XFILLER_2_178 VGND VGND VPWR VPWR sky130_fd_sc_hd__decap_12
XFILLER_2_101 VGND VGND VPWR VPWR sky130_fd_sc_hd__decap_3
XFILLER_0_15 VGND VGND VPWR VPWR sky130_fd_sc_hd__decap_12
Xmux_top_track_0.mux_l4_in_0_ mux_top_track_0.mux_l3_in_1_/X mux_top_track_0.mux_l3_in_0_/X
+ mux_top_track_0.mux_l4_in_0_/S mux_top_track_0.mux_l4_in_0_/X VGND VGND VPWR VPWR
+ sky130_fd_sc_hd__mux2_1
XFILLER_9_57 VGND VGND VPWR VPWR sky130_fd_sc_hd__decap_4
X_112_ _112_/A chany_top_out[3] VGND VGND VPWR VPWR sky130_fd_sc_hd__buf_2
X_043_ _043_/HI _043_/LO VGND VGND VPWR VPWR sky130_fd_sc_hd__conb_1
XFILLER_7_215 VGND VGND VPWR VPWR sky130_fd_sc_hd__decap_4
Xmux_right_track_8.mux_l3_in_1_ mux_right_track_8.mux_l2_in_3_/X mux_right_track_8.mux_l2_in_2_/X
+ mux_right_track_8.mux_l3_in_0_/S mux_right_track_8.mux_l3_in_1_/X VGND VGND VPWR
+ VPWR sky130_fd_sc_hd__mux2_1
XFILLER_20_23 VGND VGND VPWR VPWR sky130_fd_sc_hd__fill_2
Xmux_top_track_0.mux_l3_in_1_ mux_top_track_0.mux_l2_in_3_/X mux_top_track_0.mux_l2_in_2_/X
+ mux_top_track_0.mux_l3_in_1_/S mux_top_track_0.mux_l3_in_1_/X VGND VGND VPWR VPWR
+ sky130_fd_sc_hd__mux2_1
XFILLER_28_163 VGND VGND VPWR VPWR sky130_fd_sc_hd__fill_2
XFILLER_31_11 VGND VGND VPWR VPWR sky130_fd_sc_hd__decap_4
Xmux_right_track_8.mux_l2_in_2_ chanx_left_in[6] right_bottom_grid_pin_17_ mux_right_track_8.mux_l2_in_0_/S
+ mux_right_track_8.mux_l2_in_2_/X VGND VGND VPWR VPWR sky130_fd_sc_hd__mux2_1
XFILLER_15_45 VGND VGND VPWR VPWR sky130_fd_sc_hd__decap_4
XPHY_183 VGND VPWR sky130_fd_sc_hd__tapvpwrvgnd_1
XFILLER_31_169 VGND VGND VPWR VPWR sky130_fd_sc_hd__decap_3
XFILLER_31_147 VGND VGND VPWR VPWR sky130_fd_sc_hd__decap_4
XPHY_172 VGND VPWR sky130_fd_sc_hd__tapvpwrvgnd_1
XPHY_161 VGND VPWR sky130_fd_sc_hd__tapvpwrvgnd_1
XPHY_150 VGND VPWR sky130_fd_sc_hd__tapvpwrvgnd_1
Xclkbuf_2_1_0_prog_clk clkbuf_2_1_0_prog_clk/A clkbuf_3_3_0_prog_clk/A VGND VGND VPWR
+ VPWR sky130_fd_sc_hd__clkbuf_1
Xmux_top_track_0.mux_l2_in_2_ chanx_left_in[0] chanx_right_in[2] mux_top_track_0.mux_l2_in_0_/S
+ mux_top_track_0.mux_l2_in_2_/X VGND VGND VPWR VPWR sky130_fd_sc_hd__mux2_1
Xmux_top_track_22.mux_l2_in_0_ mux_top_track_22.mux_l1_in_1_/X mux_top_track_22.mux_l1_in_0_/X
+ mux_top_track_22.mux_l2_in_0_/S mux_top_track_22.mux_l2_in_0_/X VGND VGND VPWR VPWR
+ sky130_fd_sc_hd__mux2_1
Xmux_top_track_10.mux_l1_in_0_ chanx_right_in[9] top_left_grid_pin_43_ mux_top_track_10.mux_l1_in_0_/S
+ mux_top_track_10.mux_l1_in_0_/X VGND VGND VPWR VPWR sky130_fd_sc_hd__mux2_1
XFILLER_12_191 VGND VGND VPWR VPWR sky130_fd_sc_hd__fill_2
XFILLER_3_59 VGND VGND VPWR VPWR sky130_fd_sc_hd__fill_2
XFILLER_3_15 VGND VGND VPWR VPWR sky130_fd_sc_hd__decap_12
XFILLER_8_140 VGND VGND VPWR VPWR sky130_fd_sc_hd__fill_2
XFILLER_8_151 VGND VGND VPWR VPWR sky130_fd_sc_hd__fill_2
XFILLER_12_46 VGND VGND VPWR VPWR sky130_fd_sc_hd__fill_2
XFILLER_12_57 VGND VGND VPWR VPWR sky130_fd_sc_hd__decap_4
XFILLER_5_110 VGND VGND VPWR VPWR sky130_fd_sc_hd__fill_1
XFILLER_4_80 VGND VGND VPWR VPWR sky130_fd_sc_hd__decap_12
Xmux_top_track_22.mux_l1_in_1_ _037_/HI chanx_left_in[17] mux_top_track_22.mux_l1_in_0_/S
+ mux_top_track_22.mux_l1_in_1_/X VGND VGND VPWR VPWR sky130_fd_sc_hd__mux2_1
XFILLER_23_34 VGND VGND VPWR VPWR sky130_fd_sc_hd__fill_2
XFILLER_23_23 VGND VGND VPWR VPWR sky130_fd_sc_hd__fill_2
Xmem_top_track_10.sky130_fd_sc_hd__dfxtp_1_0_ mux_top_track_8.mux_l3_in_0_/S mux_top_track_10.mux_l1_in_0_/S
+ clkbuf_3_7_0_prog_clk/X VGND VGND VPWR VPWR sky130_fd_sc_hd__dfxtp_1
XFILLER_0_27 VGND VGND VPWR VPWR sky130_fd_sc_hd__decap_4
XFILLER_29_3 VGND VGND VPWR VPWR sky130_fd_sc_hd__fill_2
XFILLER_20_212 VGND VGND VPWR VPWR sky130_fd_sc_hd__fill_2
XFILLER_20_201 VGND VGND VPWR VPWR sky130_fd_sc_hd__fill_2
XFILLER_18_89 VGND VGND VPWR VPWR sky130_fd_sc_hd__decap_3
X_111_ _111_/A chany_top_out[4] VGND VGND VPWR VPWR sky130_fd_sc_hd__buf_2
X_042_ _042_/HI _042_/LO VGND VGND VPWR VPWR sky130_fd_sc_hd__conb_1
XFILLER_15_9 VGND VGND VPWR VPWR sky130_fd_sc_hd__fill_2
XFILLER_29_109 VGND VGND VPWR VPWR sky130_fd_sc_hd__fill_2
Xmux_right_track_8.mux_l3_in_0_ mux_right_track_8.mux_l2_in_1_/X mux_right_track_8.mux_l2_in_0_/X
+ mux_right_track_8.mux_l3_in_0_/S mux_right_track_8.mux_l3_in_0_/X VGND VGND VPWR
+ VPWR sky130_fd_sc_hd__mux2_1
XFILLER_4_219 VGND VGND VPWR VPWR sky130_fd_sc_hd__fill_1
Xmux_top_track_0.mux_l3_in_0_ mux_top_track_0.mux_l2_in_1_/X mux_top_track_0.mux_l2_in_0_/X
+ mux_top_track_0.mux_l3_in_1_/S mux_top_track_0.mux_l3_in_0_/X VGND VGND VPWR VPWR
+ sky130_fd_sc_hd__mux2_1
XFILLER_29_33 VGND VGND VPWR VPWR sky130_fd_sc_hd__fill_1
XFILLER_28_120 VGND VGND VPWR VPWR sky130_fd_sc_hd__decap_3
Xclkbuf_3_3_0_prog_clk clkbuf_3_3_0_prog_clk/A clkbuf_3_3_0_prog_clk/X VGND VGND VPWR
+ VPWR sky130_fd_sc_hd__clkbuf_1
XFILLER_6_15 VGND VGND VPWR VPWR sky130_fd_sc_hd__decap_12
Xmem_top_track_16.sky130_fd_sc_hd__dfxtp_1_1_ mux_top_track_16.mux_l1_in_0_/S mux_top_track_16.mux_l2_in_0_/S
+ clkbuf_3_6_0_prog_clk/X VGND VGND VPWR VPWR sky130_fd_sc_hd__dfxtp_1
XFILLER_19_197 VGND VGND VPWR VPWR sky130_fd_sc_hd__fill_1
XFILLER_19_164 VGND VGND VPWR VPWR sky130_fd_sc_hd__fill_1
XFILLER_19_120 VGND VGND VPWR VPWR sky130_fd_sc_hd__fill_2
XFILLER_0_211 VGND VGND VPWR VPWR sky130_fd_sc_hd__decap_6
XPHY_184 VGND VPWR sky130_fd_sc_hd__tapvpwrvgnd_1
XPHY_173 VGND VPWR sky130_fd_sc_hd__tapvpwrvgnd_1
XPHY_162 VGND VPWR sky130_fd_sc_hd__tapvpwrvgnd_1
XPHY_151 VGND VPWR sky130_fd_sc_hd__tapvpwrvgnd_1
Xmux_right_track_8.mux_l2_in_1_ right_bottom_grid_pin_9_ right_bottom_grid_pin_1_
+ mux_right_track_8.mux_l2_in_0_/S mux_right_track_8.mux_l2_in_1_/X VGND VGND VPWR
+ VPWR sky130_fd_sc_hd__mux2_1
XPHY_140 VGND VPWR sky130_fd_sc_hd__tapvpwrvgnd_1
XFILLER_16_101 VGND VGND VPWR VPWR sky130_fd_sc_hd__fill_1
Xmux_top_track_0.mux_l2_in_1_ chanx_right_in[1] top_left_grid_pin_48_ mux_top_track_0.mux_l2_in_0_/S
+ mux_top_track_0.mux_l2_in_1_/X VGND VGND VPWR VPWR sky130_fd_sc_hd__mux2_1
XFILLER_11_3 VGND VGND VPWR VPWR sky130_fd_sc_hd__decap_3
XFILLER_26_67 VGND VGND VPWR VPWR sky130_fd_sc_hd__decap_8
XFILLER_26_56 VGND VGND VPWR VPWR sky130_fd_sc_hd__fill_2
XFILLER_26_45 VGND VGND VPWR VPWR sky130_fd_sc_hd__fill_2
XFILLER_22_104 VGND VGND VPWR VPWR sky130_fd_sc_hd__fill_2
Xmux_top_track_22.sky130_fd_sc_hd__buf_4_0_ mux_top_track_22.mux_l2_in_0_/X _104_/A
+ VGND VGND VPWR VPWR sky130_fd_sc_hd__buf_4
XFILLER_21_192 VGND VGND VPWR VPWR sky130_fd_sc_hd__fill_2
XFILLER_3_27 VGND VGND VPWR VPWR sky130_fd_sc_hd__decap_12
XFILLER_8_163 VGND VGND VPWR VPWR sky130_fd_sc_hd__fill_2
XFILLER_8_174 VGND VGND VPWR VPWR sky130_fd_sc_hd__decap_6
XFILLER_12_36 VGND VGND VPWR VPWR sky130_fd_sc_hd__fill_1
Xmux_top_track_16.sky130_fd_sc_hd__buf_4_0_ mux_top_track_16.mux_l2_in_0_/X _107_/A
+ VGND VGND VPWR VPWR sky130_fd_sc_hd__buf_4
Xmux_top_track_22.mux_l1_in_0_ chanx_right_in[17] top_left_grid_pin_49_ mux_top_track_22.mux_l1_in_0_/S
+ mux_top_track_22.mux_l1_in_0_/X VGND VGND VPWR VPWR sky130_fd_sc_hd__mux2_1
XFILLER_9_15 VGND VGND VPWR VPWR sky130_fd_sc_hd__decap_12
X_110_ _110_/A chany_top_out[5] VGND VGND VPWR VPWR sky130_fd_sc_hd__buf_2
X_041_ _041_/HI _041_/LO VGND VGND VPWR VPWR sky130_fd_sc_hd__conb_1
XFILLER_29_23 VGND VGND VPWR VPWR sky130_fd_sc_hd__fill_2
Xmem_top_track_16.sky130_fd_sc_hd__dfxtp_1_0_ mux_top_track_14.mux_l2_in_0_/S mux_top_track_16.mux_l1_in_0_/S
+ clkbuf_3_6_0_prog_clk/X VGND VGND VPWR VPWR sky130_fd_sc_hd__dfxtp_1
XFILLER_19_132 VGND VGND VPWR VPWR sky130_fd_sc_hd__decap_3
XFILLER_6_27 VGND VGND VPWR VPWR sky130_fd_sc_hd__decap_4
Xmux_top_track_0.sky130_fd_sc_hd__buf_4_0_ mux_top_track_0.mux_l4_in_0_/X _115_/A
+ VGND VGND VPWR VPWR sky130_fd_sc_hd__buf_4
XFILLER_25_113 VGND VGND VPWR VPWR sky130_fd_sc_hd__decap_4
XPHY_185 VGND VPWR sky130_fd_sc_hd__tapvpwrvgnd_1
XPHY_174 VGND VPWR sky130_fd_sc_hd__tapvpwrvgnd_1
XPHY_163 VGND VPWR sky130_fd_sc_hd__tapvpwrvgnd_1
XPHY_152 VGND VPWR sky130_fd_sc_hd__tapvpwrvgnd_1
Xmux_right_track_8.mux_l2_in_0_ chany_top_in[16] mux_right_track_8.mux_l1_in_0_/X
+ mux_right_track_8.mux_l2_in_0_/S mux_right_track_8.mux_l2_in_0_/X VGND VGND VPWR
+ VPWR sky130_fd_sc_hd__mux2_1
XPHY_141 VGND VPWR sky130_fd_sc_hd__tapvpwrvgnd_1
XPHY_130 VGND VPWR sky130_fd_sc_hd__tapvpwrvgnd_1
Xmux_top_track_0.mux_l2_in_0_ top_left_grid_pin_46_ mux_top_track_0.mux_l1_in_0_/X
+ mux_top_track_0.mux_l2_in_0_/S mux_top_track_0.mux_l2_in_0_/X VGND VGND VPWR VPWR
+ sky130_fd_sc_hd__mux2_1
XFILLER_21_171 VGND VGND VPWR VPWR sky130_fd_sc_hd__fill_2
XFILLER_3_39 VGND VGND VPWR VPWR sky130_fd_sc_hd__decap_12
XFILLER_27_219 VGND VGND VPWR VPWR sky130_fd_sc_hd__fill_1
XFILLER_18_219 VGND VGND VPWR VPWR sky130_fd_sc_hd__fill_1
XFILLER_4_93 VGND VGND VPWR VPWR sky130_fd_sc_hd__decap_12
XFILLER_9_27 VGND VGND VPWR VPWR sky130_fd_sc_hd__decap_4
Xmux_top_track_38.sky130_fd_sc_hd__buf_4_0_ mux_top_track_38.mux_l2_in_0_/X _096_/A
+ VGND VGND VPWR VPWR sky130_fd_sc_hd__buf_4
XFILLER_1_3 VGND VGND VPWR VPWR sky130_fd_sc_hd__decap_12
X_040_ _040_/HI _040_/LO VGND VGND VPWR VPWR sky130_fd_sc_hd__conb_1
XFILLER_28_199 VGND VGND VPWR VPWR sky130_fd_sc_hd__decap_6
XFILLER_31_36 VGND VGND VPWR VPWR sky130_fd_sc_hd__fill_2
XFILLER_15_59 VGND VGND VPWR VPWR sky130_fd_sc_hd__fill_2
XPHY_186 VGND VPWR sky130_fd_sc_hd__tapvpwrvgnd_1
XPHY_175 VGND VPWR sky130_fd_sc_hd__tapvpwrvgnd_1
XPHY_164 VGND VPWR sky130_fd_sc_hd__tapvpwrvgnd_1
XPHY_153 VGND VPWR sky130_fd_sc_hd__tapvpwrvgnd_1
XPHY_142 VGND VPWR sky130_fd_sc_hd__tapvpwrvgnd_1
XPHY_131 VGND VPWR sky130_fd_sc_hd__tapvpwrvgnd_1
XPHY_120 VGND VPWR sky130_fd_sc_hd__tapvpwrvgnd_1
XPHY_0 VGND VGND VPWR VPWR sky130_fd_sc_hd__decap_3
XFILLER_26_25 VGND VGND VPWR VPWR sky130_fd_sc_hd__decap_6
XFILLER_16_91 VGND VGND VPWR VPWR sky130_fd_sc_hd__fill_1
Xmux_right_track_8.mux_l1_in_0_ chany_top_in[9] chany_top_in[2] mux_right_track_8.mux_l1_in_0_/S
+ mux_right_track_8.mux_l1_in_0_/X VGND VGND VPWR VPWR sky130_fd_sc_hd__mux2_1
XFILLER_18_209 VGND VGND VPWR VPWR sky130_fd_sc_hd__decap_4
Xclkbuf_2_0_0_prog_clk clkbuf_2_1_0_prog_clk/A clkbuf_3_1_0_prog_clk/A VGND VGND VPWR
+ VPWR sky130_fd_sc_hd__clkbuf_1
Xmux_top_track_0.mux_l1_in_0_ top_left_grid_pin_44_ top_left_grid_pin_42_ mux_top_track_0.mux_l1_in_0_/S
+ mux_top_track_0.mux_l1_in_0_/X VGND VGND VPWR VPWR sky130_fd_sc_hd__mux2_1
XFILLER_23_59 VGND VGND VPWR VPWR sky130_fd_sc_hd__fill_2
XFILLER_4_190 VGND VGND VPWR VPWR sky130_fd_sc_hd__decap_12
Xmux_right_track_8.sky130_fd_sc_hd__buf_4_0_ mux_right_track_8.mux_l4_in_0_/X _091_/A
+ VGND VGND VPWR VPWR sky130_fd_sc_hd__buf_4
XFILLER_20_215 VGND VGND VPWR VPWR sky130_fd_sc_hd__decap_4
XFILLER_1_171 VGND VGND VPWR VPWR sky130_fd_sc_hd__decap_12
XFILLER_7_219 VGND VGND VPWR VPWR sky130_fd_sc_hd__fill_1
XFILLER_11_215 VGND VGND VPWR VPWR sky130_fd_sc_hd__decap_4
X_099_ chanx_left_in[11] chany_top_out[16] VGND VGND VPWR VPWR sky130_fd_sc_hd__buf_2
XFILLER_27_3 VGND VGND VPWR VPWR sky130_fd_sc_hd__decap_4
XFILLER_24_91 VGND VGND VPWR VPWR sky130_fd_sc_hd__fill_1
XFILLER_29_58 VGND VGND VPWR VPWR sky130_fd_sc_hd__decap_3
XFILLER_1_62 VGND VGND VPWR VPWR sky130_fd_sc_hd__decap_12
XFILLER_1_51 VGND VGND VPWR VPWR sky130_fd_sc_hd__decap_8
XFILLER_10_60 VGND VGND VPWR VPWR sky130_fd_sc_hd__decap_12
XFILLER_10_93 VGND VGND VPWR VPWR sky130_fd_sc_hd__fill_2
Xmux_right_track_32.sky130_fd_sc_hd__buf_4_0_ mux_right_track_32.mux_l3_in_0_/X _079_/A
+ VGND VGND VPWR VPWR sky130_fd_sc_hd__buf_4
XFILLER_15_49 VGND VGND VPWR VPWR sky130_fd_sc_hd__fill_1
XFILLER_15_27 VGND VGND VPWR VPWR sky130_fd_sc_hd__decap_3
XPHY_187 VGND VPWR sky130_fd_sc_hd__tapvpwrvgnd_1
XFILLER_31_129 VGND VGND VPWR VPWR sky130_fd_sc_hd__fill_2
XFILLER_31_118 VGND VGND VPWR VPWR sky130_fd_sc_hd__decap_4
XFILLER_31_15 VGND VGND VPWR VPWR sky130_fd_sc_hd__fill_1
XPHY_176 VGND VPWR sky130_fd_sc_hd__tapvpwrvgnd_1
XPHY_165 VGND VPWR sky130_fd_sc_hd__tapvpwrvgnd_1
XPHY_154 VGND VPWR sky130_fd_sc_hd__tapvpwrvgnd_1
XPHY_143 VGND VPWR sky130_fd_sc_hd__tapvpwrvgnd_1
XPHY_132 VGND VPWR sky130_fd_sc_hd__tapvpwrvgnd_1
Xmux_right_track_4.mux_l1_in_6_ chanx_left_in[14] chanx_left_in[5] mux_right_track_4.mux_l1_in_6_/S
+ mux_right_track_4.mux_l1_in_6_/X VGND VGND VPWR VPWR sky130_fd_sc_hd__mux2_1
XPHY_121 VGND VPWR sky130_fd_sc_hd__tapvpwrvgnd_1
XPHY_110 VGND VPWR sky130_fd_sc_hd__tapvpwrvgnd_1
XFILLER_30_195 VGND VGND VPWR VPWR sky130_fd_sc_hd__fill_2
XFILLER_30_151 VGND VGND VPWR VPWR sky130_fd_sc_hd__fill_2
XFILLER_30_140 VGND VGND VPWR VPWR sky130_fd_sc_hd__fill_2
XFILLER_15_181 VGND VGND VPWR VPWR sky130_fd_sc_hd__fill_2
XPHY_1 VGND VGND VPWR VPWR sky130_fd_sc_hd__decap_3
Xclkbuf_3_2_0_prog_clk clkbuf_3_3_0_prog_clk/A clkbuf_3_2_0_prog_clk/X VGND VGND VPWR
+ VPWR sky130_fd_sc_hd__clkbuf_1
XFILLER_21_184 VGND VGND VPWR VPWR sky130_fd_sc_hd__fill_2
XFILLER_12_162 VGND VGND VPWR VPWR sky130_fd_sc_hd__fill_1
XFILLER_12_28 VGND VGND VPWR VPWR sky130_fd_sc_hd__decap_3
XFILLER_26_210 VGND VGND VPWR VPWR sky130_fd_sc_hd__decap_4
Xmem_left_track_1.sky130_fd_sc_hd__dfxtp_1_3_ mux_left_track_1.mux_l3_in_1_/S mux_left_track_1.mux_l4_in_0_/S
+ clkbuf_3_0_0_prog_clk/X VGND VGND VPWR VPWR sky130_fd_sc_hd__dfxtp_1
Xmux_left_track_3.mux_l2_in_3_ _046_/HI left_bottom_grid_pin_15_ mux_left_track_3.mux_l2_in_1_/S
+ mux_left_track_3.mux_l2_in_3_/X VGND VGND VPWR VPWR sky130_fd_sc_hd__mux2_1
XFILLER_13_82 VGND VGND VPWR VPWR sky130_fd_sc_hd__fill_1
X_098_ chanx_left_in[7] chany_top_out[17] VGND VGND VPWR VPWR sky130_fd_sc_hd__buf_2
XFILLER_1_74 VGND VGND VPWR VPWR sky130_fd_sc_hd__decap_12
Xmux_left_track_3.mux_l4_in_0_ mux_left_track_3.mux_l3_in_1_/X mux_left_track_3.mux_l3_in_0_/X
+ mux_left_track_3.mux_l4_in_0_/S mux_left_track_3.mux_l4_in_0_/X VGND VGND VPWR VPWR
+ sky130_fd_sc_hd__mux2_1
XFILLER_10_72 VGND VGND VPWR VPWR sky130_fd_sc_hd__decap_12
XFILLER_16_138 VGND VGND VPWR VPWR sky130_fd_sc_hd__decap_4
XFILLER_15_39 VGND VGND VPWR VPWR sky130_fd_sc_hd__decap_3
Xmux_right_track_4.mux_l1_in_5_ right_bottom_grid_pin_17_ right_bottom_grid_pin_15_
+ mux_right_track_4.mux_l1_in_6_/S mux_right_track_4.mux_l1_in_5_/X VGND VGND VPWR
+ VPWR sky130_fd_sc_hd__mux2_1
XPHY_100 VGND VPWR sky130_fd_sc_hd__tapvpwrvgnd_1
XFILLER_31_108 VGND VGND VPWR VPWR sky130_fd_sc_hd__decap_4
XPHY_177 VGND VPWR sky130_fd_sc_hd__tapvpwrvgnd_1
XPHY_166 VGND VPWR sky130_fd_sc_hd__tapvpwrvgnd_1
XFILLER_24_193 VGND VGND VPWR VPWR sky130_fd_sc_hd__fill_1
XPHY_155 VGND VPWR sky130_fd_sc_hd__tapvpwrvgnd_1
XPHY_144 VGND VPWR sky130_fd_sc_hd__tapvpwrvgnd_1
XFILLER_21_71 VGND VGND VPWR VPWR sky130_fd_sc_hd__fill_2
XPHY_133 VGND VPWR sky130_fd_sc_hd__tapvpwrvgnd_1
XPHY_122 VGND VPWR sky130_fd_sc_hd__tapvpwrvgnd_1
XPHY_2 VGND VGND VPWR VPWR sky130_fd_sc_hd__decap_3
Xmux_left_track_3.mux_l3_in_1_ mux_left_track_3.mux_l2_in_3_/X mux_left_track_3.mux_l2_in_2_/X
+ mux_left_track_3.mux_l3_in_0_/S mux_left_track_3.mux_l3_in_1_/X VGND VGND VPWR VPWR
+ sky130_fd_sc_hd__mux2_1
XPHY_111 VGND VPWR sky130_fd_sc_hd__tapvpwrvgnd_1
Xmux_left_track_5.sky130_fd_sc_hd__buf_4_0_ mux_left_track_5.mux_l4_in_0_/X _073_/A
+ VGND VGND VPWR VPWR sky130_fd_sc_hd__buf_4
XFILLER_7_51 VGND VGND VPWR VPWR sky130_fd_sc_hd__decap_8
XFILLER_7_62 VGND VGND VPWR VPWR sky130_fd_sc_hd__decap_12
XFILLER_16_93 VGND VGND VPWR VPWR sky130_fd_sc_hd__decap_8
XFILLER_12_141 VGND VGND VPWR VPWR sky130_fd_sc_hd__fill_2
XFILLER_12_130 VGND VGND VPWR VPWR sky130_fd_sc_hd__fill_2
XFILLER_8_189 VGND VGND VPWR VPWR sky130_fd_sc_hd__decap_12
Xmem_left_track_1.sky130_fd_sc_hd__dfxtp_1_2_ mux_left_track_1.mux_l2_in_3_/S mux_left_track_1.mux_l3_in_1_/S
+ clkbuf_3_0_0_prog_clk/X VGND VGND VPWR VPWR sky130_fd_sc_hd__dfxtp_1
XFILLER_5_126 VGND VGND VPWR VPWR sky130_fd_sc_hd__decap_12
Xmux_left_track_3.mux_l2_in_2_ left_bottom_grid_pin_11_ left_bottom_grid_pin_7_ mux_left_track_3.mux_l2_in_1_/S
+ mux_left_track_3.mux_l2_in_2_/X VGND VGND VPWR VPWR sky130_fd_sc_hd__mux2_1
XFILLER_32_203 VGND VGND VPWR VPWR sky130_fd_sc_hd__fill_2
XFILLER_23_39 VGND VGND VPWR VPWR sky130_fd_sc_hd__decap_6
XFILLER_1_184 VGND VGND VPWR VPWR sky130_fd_sc_hd__decap_12
XFILLER_24_93 VGND VGND VPWR VPWR sky130_fd_sc_hd__decap_4
XFILLER_24_82 VGND VGND VPWR VPWR sky130_fd_sc_hd__fill_2
XFILLER_24_71 VGND VGND VPWR VPWR sky130_fd_sc_hd__fill_2
Xmux_right_track_4.mux_l2_in_3_ _055_/HI mux_right_track_4.mux_l1_in_6_/X mux_right_track_4.mux_l2_in_2_/S
+ mux_right_track_4.mux_l2_in_3_/X VGND VGND VPWR VPWR sky130_fd_sc_hd__mux2_1
X_097_ chanx_left_in[3] chany_top_out[18] VGND VGND VPWR VPWR sky130_fd_sc_hd__buf_2
XFILLER_20_29 VGND VGND VPWR VPWR sky130_fd_sc_hd__fill_2
XFILLER_1_86 VGND VGND VPWR VPWR sky130_fd_sc_hd__decap_12
Xmem_top_track_4.sky130_fd_sc_hd__dfxtp_1_2_ mux_top_track_4.mux_l2_in_1_/S mux_top_track_4.mux_l3_in_0_/S
+ clkbuf_3_5_0_prog_clk/X VGND VGND VPWR VPWR sky130_fd_sc_hd__dfxtp_1
XFILLER_32_3 VGND VGND VPWR VPWR sky130_fd_sc_hd__decap_4
XFILLER_10_84 VGND VGND VPWR VPWR sky130_fd_sc_hd__decap_8
XPHY_178 VGND VPWR sky130_fd_sc_hd__tapvpwrvgnd_1
XPHY_167 VGND VPWR sky130_fd_sc_hd__tapvpwrvgnd_1
XPHY_156 VGND VPWR sky130_fd_sc_hd__tapvpwrvgnd_1
XPHY_145 VGND VPWR sky130_fd_sc_hd__tapvpwrvgnd_1
XPHY_134 VGND VPWR sky130_fd_sc_hd__tapvpwrvgnd_1
XPHY_123 VGND VPWR sky130_fd_sc_hd__tapvpwrvgnd_1
Xmux_right_track_4.mux_l1_in_4_ right_bottom_grid_pin_13_ right_bottom_grid_pin_11_
+ mux_right_track_4.mux_l1_in_6_/S mux_right_track_4.mux_l1_in_4_/X VGND VGND VPWR
+ VPWR sky130_fd_sc_hd__mux2_1
XPHY_112 VGND VPWR sky130_fd_sc_hd__tapvpwrvgnd_1
XPHY_101 VGND VPWR sky130_fd_sc_hd__tapvpwrvgnd_1
XPHY_3 VGND VGND VPWR VPWR sky130_fd_sc_hd__decap_3
XFILLER_7_74 VGND VGND VPWR VPWR sky130_fd_sc_hd__decap_12
Xmux_left_track_3.mux_l3_in_0_ mux_left_track_3.mux_l2_in_1_/X mux_left_track_3.mux_l2_in_0_/X
+ mux_left_track_3.mux_l3_in_0_/S mux_left_track_3.mux_l3_in_0_/X VGND VGND VPWR VPWR
+ sky130_fd_sc_hd__mux2_1
XFILLER_21_120 VGND VGND VPWR VPWR sky130_fd_sc_hd__fill_2
Xmux_right_track_4.mux_l4_in_0_ mux_right_track_4.mux_l3_in_1_/X mux_right_track_4.mux_l3_in_0_/X
+ mux_right_track_4.mux_l4_in_0_/S mux_right_track_4.mux_l4_in_0_/X VGND VGND VPWR
+ VPWR sky130_fd_sc_hd__mux2_1
Xmem_left_track_1.sky130_fd_sc_hd__dfxtp_1_1_ mux_left_track_1.mux_l1_in_0_/S mux_left_track_1.mux_l2_in_3_/S
+ clkbuf_3_0_0_prog_clk/X VGND VGND VPWR VPWR sky130_fd_sc_hd__dfxtp_1
XFILLER_5_138 VGND VGND VPWR VPWR sky130_fd_sc_hd__decap_12
XFILLER_32_215 VGND VGND VPWR VPWR sky130_fd_sc_hd__fill_2
XFILLER_17_212 VGND VGND VPWR VPWR sky130_fd_sc_hd__fill_2
Xmux_left_track_3.mux_l2_in_1_ left_bottom_grid_pin_3_ chanx_right_in[13] mux_left_track_3.mux_l2_in_1_/S
+ mux_left_track_3.mux_l2_in_1_/X VGND VGND VPWR VPWR sky130_fd_sc_hd__mux2_1
Xmux_right_track_4.mux_l3_in_1_ mux_right_track_4.mux_l2_in_3_/X mux_right_track_4.mux_l2_in_2_/X
+ mux_right_track_4.mux_l3_in_0_/S mux_right_track_4.mux_l3_in_1_/X VGND VGND VPWR
+ VPWR sky130_fd_sc_hd__mux2_1