* NGSPICE file created from sb_1__1_.ext - technology: sky130A

* Black-box entry subcircuit for sky130_fd_sc_hd__dfxtp_1 abstract view
.subckt sky130_fd_sc_hd__dfxtp_1 CLK D VGND VNB VPB VPWR Q
.ends

* Black-box entry subcircuit for sky130_fd_sc_hd__fill_1 abstract view
.subckt sky130_fd_sc_hd__fill_1 VGND VNB VPB VPWR
.ends

* Black-box entry subcircuit for sky130_fd_sc_hd__mux2_1 abstract view
.subckt sky130_fd_sc_hd__mux2_1 A0 A1 S VGND VNB VPB VPWR X
.ends

* Black-box entry subcircuit for sky130_fd_sc_hd__decap_4 abstract view
.subckt sky130_fd_sc_hd__decap_4 VGND VNB VPB VPWR
.ends

* Black-box entry subcircuit for sky130_fd_sc_hd__fill_2 abstract view
.subckt sky130_fd_sc_hd__fill_2 VGND VNB VPB VPWR
.ends

* Black-box entry subcircuit for sky130_fd_sc_hd__diode_2 abstract view
.subckt sky130_fd_sc_hd__diode_2 DIODE VGND VNB VPB VPWR
.ends

* Black-box entry subcircuit for sky130_fd_sc_hd__buf_2 abstract view
.subckt sky130_fd_sc_hd__buf_2 A VGND VNB VPB VPWR X
.ends

* Black-box entry subcircuit for sky130_fd_sc_hd__decap_8 abstract view
.subckt sky130_fd_sc_hd__decap_8 VGND VNB VPB VPWR
.ends

* Black-box entry subcircuit for sky130_fd_sc_hd__conb_1 abstract view
.subckt sky130_fd_sc_hd__conb_1 VGND VNB VPB VPWR HI LO
.ends

* Black-box entry subcircuit for sky130_fd_sc_hd__buf_4 abstract view
.subckt sky130_fd_sc_hd__buf_4 A VGND VNB VPB VPWR X
.ends

* Black-box entry subcircuit for sky130_fd_sc_hd__tapvpwrvgnd_1 abstract view
.subckt sky130_fd_sc_hd__tapvpwrvgnd_1 VGND VPWR
.ends

* Black-box entry subcircuit for sky130_fd_sc_hd__clkbuf_1 abstract view
.subckt sky130_fd_sc_hd__clkbuf_1 A VGND VNB VPB VPWR X
.ends

* Black-box entry subcircuit for sky130_fd_sc_hd__decap_6 abstract view
.subckt sky130_fd_sc_hd__decap_6 VGND VNB VPB VPWR
.ends

* Black-box entry subcircuit for sky130_fd_sc_hd__decap_12 abstract view
.subckt sky130_fd_sc_hd__decap_12 VGND VNB VPB VPWR
.ends

* Black-box entry subcircuit for sky130_fd_sc_hd__decap_3 abstract view
.subckt sky130_fd_sc_hd__decap_3 VGND VNB VPB VPWR
.ends

* Black-box entry subcircuit for sky130_fd_sc_hd__buf_8 abstract view
.subckt sky130_fd_sc_hd__buf_8 A VGND VNB VPB VPWR X
.ends

* Black-box entry subcircuit for sky130_fd_sc_hd__clkbuf_16 abstract view
.subckt sky130_fd_sc_hd__clkbuf_16 A VGND VNB VPB VPWR X
.ends

.subckt sb_1__1_ Test_en_N_out Test_en_S_in bottom_left_grid_pin_42_ bottom_left_grid_pin_43_
+ bottom_left_grid_pin_44_ bottom_left_grid_pin_45_ bottom_left_grid_pin_46_ bottom_left_grid_pin_47_
+ bottom_left_grid_pin_48_ bottom_left_grid_pin_49_ ccff_head ccff_tail chanx_left_in[0]
+ chanx_left_in[10] chanx_left_in[11] chanx_left_in[12] chanx_left_in[13] chanx_left_in[14]
+ chanx_left_in[15] chanx_left_in[16] chanx_left_in[17] chanx_left_in[18] chanx_left_in[19]
+ chanx_left_in[1] chanx_left_in[2] chanx_left_in[3] chanx_left_in[4] chanx_left_in[5]
+ chanx_left_in[6] chanx_left_in[7] chanx_left_in[8] chanx_left_in[9] chanx_left_out[0]
+ chanx_left_out[10] chanx_left_out[11] chanx_left_out[12] chanx_left_out[13] chanx_left_out[14]
+ chanx_left_out[15] chanx_left_out[16] chanx_left_out[17] chanx_left_out[18] chanx_left_out[19]
+ chanx_left_out[1] chanx_left_out[2] chanx_left_out[3] chanx_left_out[4] chanx_left_out[5]
+ chanx_left_out[6] chanx_left_out[7] chanx_left_out[8] chanx_left_out[9] chanx_right_in[0]
+ chanx_right_in[10] chanx_right_in[11] chanx_right_in[12] chanx_right_in[13] chanx_right_in[14]
+ chanx_right_in[15] chanx_right_in[16] chanx_right_in[17] chanx_right_in[18] chanx_right_in[19]
+ chanx_right_in[1] chanx_right_in[2] chanx_right_in[3] chanx_right_in[4] chanx_right_in[5]
+ chanx_right_in[6] chanx_right_in[7] chanx_right_in[8] chanx_right_in[9] chanx_right_out[0]
+ chanx_right_out[10] chanx_right_out[11] chanx_right_out[12] chanx_right_out[13]
+ chanx_right_out[14] chanx_right_out[15] chanx_right_out[16] chanx_right_out[17]
+ chanx_right_out[18] chanx_right_out[19] chanx_right_out[1] chanx_right_out[2] chanx_right_out[3]
+ chanx_right_out[4] chanx_right_out[5] chanx_right_out[6] chanx_right_out[7] chanx_right_out[8]
+ chanx_right_out[9] chany_bottom_in[0] chany_bottom_in[10] chany_bottom_in[11] chany_bottom_in[12]
+ chany_bottom_in[13] chany_bottom_in[14] chany_bottom_in[15] chany_bottom_in[16]
+ chany_bottom_in[17] chany_bottom_in[18] chany_bottom_in[19] chany_bottom_in[1] chany_bottom_in[2]
+ chany_bottom_in[3] chany_bottom_in[4] chany_bottom_in[5] chany_bottom_in[6] chany_bottom_in[7]
+ chany_bottom_in[8] chany_bottom_in[9] chany_bottom_out[0] chany_bottom_out[10] chany_bottom_out[11]
+ chany_bottom_out[12] chany_bottom_out[13] chany_bottom_out[14] chany_bottom_out[15]
+ chany_bottom_out[16] chany_bottom_out[17] chany_bottom_out[18] chany_bottom_out[19]
+ chany_bottom_out[1] chany_bottom_out[2] chany_bottom_out[3] chany_bottom_out[4]
+ chany_bottom_out[5] chany_bottom_out[6] chany_bottom_out[7] chany_bottom_out[8]
+ chany_bottom_out[9] chany_top_in[0] chany_top_in[10] chany_top_in[11] chany_top_in[12]
+ chany_top_in[13] chany_top_in[14] chany_top_in[15] chany_top_in[16] chany_top_in[17]
+ chany_top_in[18] chany_top_in[19] chany_top_in[1] chany_top_in[2] chany_top_in[3]
+ chany_top_in[4] chany_top_in[5] chany_top_in[6] chany_top_in[7] chany_top_in[8]
+ chany_top_in[9] chany_top_out[0] chany_top_out[10] chany_top_out[11] chany_top_out[12]
+ chany_top_out[13] chany_top_out[14] chany_top_out[15] chany_top_out[16] chany_top_out[17]
+ chany_top_out[18] chany_top_out[19] chany_top_out[1] chany_top_out[2] chany_top_out[3]
+ chany_top_out[4] chany_top_out[5] chany_top_out[6] chany_top_out[7] chany_top_out[8]
+ chany_top_out[9] clk_1_E_out clk_1_N_in clk_1_W_out clk_2_E_out clk_2_N_in clk_2_N_out
+ clk_2_S_out clk_2_W_out clk_3_E_out clk_3_N_in clk_3_N_out clk_3_S_out clk_3_W_out
+ left_bottom_grid_pin_34_ left_bottom_grid_pin_35_ left_bottom_grid_pin_36_ left_bottom_grid_pin_37_
+ left_bottom_grid_pin_38_ left_bottom_grid_pin_39_ left_bottom_grid_pin_40_ left_bottom_grid_pin_41_
+ prog_clk_0_N_in prog_clk_1_E_out prog_clk_1_N_in prog_clk_1_W_out prog_clk_2_E_out
+ prog_clk_2_N_in prog_clk_2_N_out prog_clk_2_S_out prog_clk_2_W_out prog_clk_3_E_out
+ prog_clk_3_N_in prog_clk_3_N_out prog_clk_3_S_out prog_clk_3_W_out right_bottom_grid_pin_34_
+ right_bottom_grid_pin_35_ right_bottom_grid_pin_36_ right_bottom_grid_pin_37_ right_bottom_grid_pin_38_
+ right_bottom_grid_pin_39_ right_bottom_grid_pin_40_ right_bottom_grid_pin_41_ top_left_grid_pin_42_
+ top_left_grid_pin_43_ top_left_grid_pin_44_ top_left_grid_pin_45_ top_left_grid_pin_46_
+ top_left_grid_pin_47_ top_left_grid_pin_48_ top_left_grid_pin_49_ VPWR VGND
Xmem_right_track_2.sky130_fd_sc_hd__dfxtp_1_0_ clkbuf_3_5_0_mem_bottom_track_1.prog_clk/X
+ mux_right_track_0.mux_l4_in_0_/S VGND VGND VPWR VPWR mux_right_track_2.mux_l1_in_3_/S
+ sky130_fd_sc_hd__dfxtp_1
XFILLER_26_30 VGND VGND VPWR VPWR sky130_fd_sc_hd__fill_1
XFILLER_9_115 VGND VGND VPWR VPWR sky130_fd_sc_hd__fill_1
Xmux_bottom_track_3.mux_l1_in_1_ chanx_right_in[11] chanx_right_in[4] mux_bottom_track_3.mux_l1_in_1_/S
+ VGND VGND VPWR VPWR mux_bottom_track_3.mux_l1_in_1_/X sky130_fd_sc_hd__mux2_1
XFILLER_3_34 VGND VGND VPWR VPWR sky130_fd_sc_hd__decap_4
Xmem_left_track_17.sky130_fd_sc_hd__dfxtp_1_0_ clkbuf_3_3_0_mem_bottom_track_1.prog_clk/X
+ mux_left_track_9.mux_l4_in_0_/S VGND VGND VPWR VPWR mux_left_track_17.mux_l1_in_0_/S
+ sky130_fd_sc_hd__dfxtp_1
XFILLER_6_118 VGND VGND VPWR VPWR sky130_fd_sc_hd__fill_1
XFILLER_18_203 VGND VGND VPWR VPWR sky130_fd_sc_hd__fill_2
XFILLER_5_151 VGND VGND VPWR VPWR sky130_fd_sc_hd__fill_1
XFILLER_5_184 VGND VGND VPWR VPWR sky130_fd_sc_hd__fill_1
XANTENNA_mux_right_track_4.mux_l1_in_0__A1 chany_top_in[1] VGND VGND VPWR VPWR sky130_fd_sc_hd__diode_2
XANTENNA_mux_top_track_0.mux_l1_in_0__A0 top_left_grid_pin_44_ VGND VGND VPWR VPWR
+ sky130_fd_sc_hd__diode_2
X_062_ chanx_right_in[5] VGND VGND VPWR VPWR chanx_left_out[6] sky130_fd_sc_hd__buf_2
XFILLER_23_64 VGND VGND VPWR VPWR sky130_fd_sc_hd__fill_1
X_131_ chany_bottom_in[14] VGND VGND VPWR VPWR chany_top_out[15] sky130_fd_sc_hd__buf_2
XANTENNA_mux_left_track_33.mux_l1_in_2__A1 chany_bottom_in[15] VGND VGND VPWR VPWR
+ sky130_fd_sc_hd__diode_2
Xmem_right_track_8.sky130_fd_sc_hd__dfxtp_1_1_ clkbuf_3_5_0_mem_bottom_track_1.prog_clk/X
+ mux_right_track_8.mux_l1_in_0_/S VGND VGND VPWR VPWR mux_right_track_8.mux_l2_in_3_/S
+ sky130_fd_sc_hd__dfxtp_1
XANTENNA__119__A chany_bottom_in[2] VGND VGND VPWR VPWR sky130_fd_sc_hd__diode_2
XANTENNA_mux_right_track_2.mux_l1_in_2__A1 right_bottom_grid_pin_37_ VGND VGND VPWR
+ VPWR sky130_fd_sc_hd__diode_2
XFILLER_7_213 VGND VGND VPWR VPWR sky130_fd_sc_hd__decap_8
X_114_ chany_top_in[17] VGND VGND VPWR VPWR chany_bottom_out[18] sky130_fd_sc_hd__buf_2
X_045_ VGND VGND VPWR VPWR _045_/HI _045_/LO sky130_fd_sc_hd__conb_1
Xmem_bottom_track_25.sky130_fd_sc_hd__dfxtp_1_2_ clkbuf_3_4_0_mem_bottom_track_1.prog_clk/X
+ mux_bottom_track_25.mux_l2_in_3_/S VGND VGND VPWR VPWR mux_bottom_track_25.mux_l3_in_1_/S
+ sky130_fd_sc_hd__dfxtp_1
Xmux_bottom_track_17.mux_l1_in_0_ chany_top_in[17] chany_top_in[8] mux_bottom_track_17.mux_l1_in_0_/S
+ VGND VGND VPWR VPWR mux_bottom_track_17.mux_l1_in_0_/X sky130_fd_sc_hd__mux2_1
XFILLER_29_117 VGND VGND VPWR VPWR sky130_fd_sc_hd__decap_4
XFILLER_28_150 VGND VGND VPWR VPWR sky130_fd_sc_hd__fill_1
XANTENNA_mux_right_track_0.mux_l1_in_4__A1 chany_bottom_in[12] VGND VGND VPWR VPWR
+ sky130_fd_sc_hd__diode_2
XFILLER_6_12 VGND VGND VPWR VPWR sky130_fd_sc_hd__fill_1
X_028_ VGND VGND VPWR VPWR _028_/HI _028_/LO sky130_fd_sc_hd__conb_1
XANTENNA_mux_bottom_track_3.mux_l1_in_1__A0 chanx_right_in[11] VGND VGND VPWR VPWR
+ sky130_fd_sc_hd__diode_2
Xmux_bottom_track_3.sky130_fd_sc_hd__buf_4_0_ mux_bottom_track_3.mux_l4_in_0_/X VGND
+ VGND VPWR VPWR _097_/A sky130_fd_sc_hd__buf_4
XPHY_170 VGND VPWR sky130_fd_sc_hd__tapvpwrvgnd_1
XANTENNA__127__A chany_bottom_in[10] VGND VGND VPWR VPWR sky130_fd_sc_hd__diode_2
XFILLER_31_156 VGND VGND VPWR VPWR sky130_fd_sc_hd__fill_1
XPHY_181 VGND VPWR sky130_fd_sc_hd__tapvpwrvgnd_1
XFILLER_31_178 VGND VGND VPWR VPWR sky130_fd_sc_hd__fill_1
XPHY_192 VGND VPWR sky130_fd_sc_hd__tapvpwrvgnd_1
Xmem_bottom_track_3.sky130_fd_sc_hd__dfxtp_1_3_ clkbuf_3_4_0_mem_bottom_track_1.prog_clk/X
+ mux_bottom_track_3.mux_l3_in_0_/S VGND VGND VPWR VPWR mux_bottom_track_3.mux_l4_in_0_/S
+ sky130_fd_sc_hd__dfxtp_1
XANTENNA_mux_left_track_9.mux_l2_in_2__A0 left_bottom_grid_pin_34_ VGND VGND VPWR
+ VPWR sky130_fd_sc_hd__diode_2
XANTENNA_mux_right_track_0.mux_l2_in_3__A1 chanx_left_in[12] VGND VGND VPWR VPWR sky130_fd_sc_hd__diode_2
XFILLER_13_123 VGND VGND VPWR VPWR sky130_fd_sc_hd__fill_1
Xmux_bottom_track_3.mux_l1_in_0_ chany_top_in[13] chany_top_in[4] mux_bottom_track_3.mux_l1_in_1_/S
+ VGND VGND VPWR VPWR mux_bottom_track_3.mux_l1_in_0_/X sky130_fd_sc_hd__mux2_1
XANTENNA_mux_bottom_track_1.mux_l1_in_3__A0 bottom_left_grid_pin_46_ VGND VGND VPWR
+ VPWR sky130_fd_sc_hd__diode_2
Xclkbuf_1_0_0_mem_bottom_track_1.prog_clk clkbuf_0_mem_bottom_track_1.prog_clk/X VGND
+ VGND VPWR VPWR clkbuf_2_1_0_mem_bottom_track_1.prog_clk/A sky130_fd_sc_hd__clkbuf_1
XFILLER_18_215 VGND VGND VPWR VPWR sky130_fd_sc_hd__decap_8
XANTENNA_mux_top_track_0.mux_l1_in_0__A1 top_left_grid_pin_42_ VGND VGND VPWR VPWR
+ sky130_fd_sc_hd__diode_2
X_130_ chany_bottom_in[13] VGND VGND VPWR VPWR chany_top_out[14] sky130_fd_sc_hd__buf_2
XFILLER_2_111 VGND VGND VPWR VPWR sky130_fd_sc_hd__fill_2
XANTENNA_mux_bottom_track_1.mux_l2_in_2__A0 chanx_left_in[2] VGND VGND VPWR VPWR sky130_fd_sc_hd__diode_2
X_061_ chanx_right_in[4] VGND VGND VPWR VPWR chanx_left_out[5] sky130_fd_sc_hd__buf_2
XANTENNA_mux_left_track_5.mux_l2_in_6__A0 left_bottom_grid_pin_40_ VGND VGND VPWR
+ VPWR sky130_fd_sc_hd__diode_2
Xmem_right_track_8.sky130_fd_sc_hd__dfxtp_1_0_ clkbuf_3_5_0_mem_bottom_track_1.prog_clk/X
+ mux_right_track_4.mux_l5_in_0_/S VGND VGND VPWR VPWR mux_right_track_8.mux_l1_in_0_/S
+ sky130_fd_sc_hd__dfxtp_1
Xprog_clk_2_W_FTB01 prog_clk_2_N_in VGND VGND VPWR VPWR prog_clk_2_W_out sky130_fd_sc_hd__buf_4
XANTENNA__135__A chany_bottom_in[18] VGND VGND VPWR VPWR sky130_fd_sc_hd__diode_2
XFILLER_20_221 VGND VGND VPWR VPWR sky130_fd_sc_hd__fill_2
Xmux_left_track_9.sky130_fd_sc_hd__buf_4_0_ mux_left_track_9.mux_l4_in_0_/X VGND VGND
+ VPWR VPWR _060_/A sky130_fd_sc_hd__buf_4
X_113_ chany_top_in[16] VGND VGND VPWR VPWR chany_bottom_out[17] sky130_fd_sc_hd__buf_2
X_044_ VGND VGND VPWR VPWR _044_/HI _044_/LO sky130_fd_sc_hd__conb_1
Xmem_bottom_track_25.sky130_fd_sc_hd__dfxtp_1_1_ clkbuf_3_7_0_mem_bottom_track_1.prog_clk/X
+ mux_bottom_track_25.mux_l1_in_1_/S VGND VGND VPWR VPWR mux_bottom_track_25.mux_l2_in_3_/S
+ sky130_fd_sc_hd__dfxtp_1
XANTENNA_mem_top_track_0.sky130_fd_sc_hd__dfxtp_1_0__D ccff_head VGND VGND VPWR VPWR
+ sky130_fd_sc_hd__diode_2
Xmem_top_track_16.sky130_fd_sc_hd__dfxtp_1_3_ clkbuf_3_6_0_mem_bottom_track_1.prog_clk/X
+ mux_top_track_16.mux_l3_in_0_/S VGND VGND VPWR VPWR mux_top_track_16.mux_l4_in_0_/S
+ sky130_fd_sc_hd__dfxtp_1
XFILLER_19_173 VGND VGND VPWR VPWR sky130_fd_sc_hd__fill_1
XFILLER_25_121 VGND VGND VPWR VPWR sky130_fd_sc_hd__fill_1
XFILLER_31_21 VGND VGND VPWR VPWR sky130_fd_sc_hd__fill_2
XANTENNA_mux_bottom_track_3.mux_l1_in_1__A1 chanx_right_in[4] VGND VGND VPWR VPWR
+ sky130_fd_sc_hd__diode_2
Xmux_right_track_8.mux_l2_in_3_ _036_/HI chanx_left_in[16] mux_right_track_8.mux_l2_in_3_/S
+ VGND VGND VPWR VPWR mux_right_track_8.mux_l2_in_3_/X sky130_fd_sc_hd__mux2_1
XPHY_193 VGND VPWR sky130_fd_sc_hd__tapvpwrvgnd_1
XPHY_160 VGND VPWR sky130_fd_sc_hd__tapvpwrvgnd_1
XPHY_171 VGND VPWR sky130_fd_sc_hd__tapvpwrvgnd_1
XPHY_182 VGND VPWR sky130_fd_sc_hd__tapvpwrvgnd_1
Xmux_left_track_25.sky130_fd_sc_hd__buf_4_0_ mux_left_track_25.mux_l4_in_0_/X VGND
+ VGND VPWR VPWR _068_/A sky130_fd_sc_hd__buf_4
Xmux_top_track_0.mux_l2_in_3_ _037_/HI chanx_left_in[12] mux_top_track_0.mux_l2_in_3_/S
+ VGND VGND VPWR VPWR mux_top_track_0.mux_l2_in_3_/X sky130_fd_sc_hd__mux2_1
Xmem_bottom_track_3.sky130_fd_sc_hd__dfxtp_1_2_ clkbuf_3_4_0_mem_bottom_track_1.prog_clk/X
+ mux_bottom_track_3.mux_l2_in_3_/S VGND VGND VPWR VPWR mux_bottom_track_3.mux_l3_in_0_/S
+ sky130_fd_sc_hd__dfxtp_1
XFILLER_22_135 VGND VGND VPWR VPWR sky130_fd_sc_hd__fill_1
XFILLER_7_9 VGND VGND VPWR VPWR sky130_fd_sc_hd__fill_1
XANTENNA_mux_left_track_9.mux_l2_in_2__A1 chany_bottom_in[16] VGND VGND VPWR VPWR
+ sky130_fd_sc_hd__diode_2
XFILLER_26_32 VGND VGND VPWR VPWR sky130_fd_sc_hd__fill_1
XFILLER_13_102 VGND VGND VPWR VPWR sky130_fd_sc_hd__decap_4
Xclkbuf_3_4_0_mem_bottom_track_1.prog_clk clkbuf_3_5_0_mem_bottom_track_1.prog_clk/A
+ VGND VGND VPWR VPWR clkbuf_3_4_0_mem_bottom_track_1.prog_clk/X sky130_fd_sc_hd__clkbuf_1
XANTENNA_mux_bottom_track_1.mux_l1_in_3__A1 bottom_left_grid_pin_44_ VGND VGND VPWR
+ VPWR sky130_fd_sc_hd__diode_2
Xmux_top_track_0.mux_l1_in_4_ chanx_left_in[0] chany_bottom_in[12] mux_top_track_0.mux_l1_in_1_/S
+ VGND VGND VPWR VPWR mux_top_track_0.mux_l1_in_4_/X sky130_fd_sc_hd__mux2_1
XFILLER_15_219 VGND VGND VPWR VPWR sky130_fd_sc_hd__decap_4
Xmux_right_track_8.mux_l4_in_0_ mux_right_track_8.mux_l3_in_1_/X mux_right_track_8.mux_l3_in_0_/X
+ mux_right_track_8.mux_l4_in_0_/S VGND VGND VPWR VPWR mux_right_track_8.mux_l4_in_0_/X
+ sky130_fd_sc_hd__mux2_1
XANTENNA_clk_1_W_FTB01_A clk_1_N_in VGND VGND VPWR VPWR sky130_fd_sc_hd__diode_2
XFILLER_3_3 VGND VGND VPWR VPWR sky130_fd_sc_hd__decap_6
X_060_ _060_/A VGND VGND VPWR VPWR chanx_left_out[4] sky130_fd_sc_hd__buf_2
Xmux_top_track_0.mux_l4_in_0_ mux_top_track_0.mux_l3_in_1_/X mux_top_track_0.mux_l3_in_0_/X
+ mux_top_track_0.mux_l4_in_0_/S VGND VGND VPWR VPWR mux_top_track_0.mux_l4_in_0_/X
+ sky130_fd_sc_hd__mux2_1
XFILLER_0_15 VGND VGND VPWR VPWR sky130_fd_sc_hd__decap_6
Xmem_bottom_track_9.sky130_fd_sc_hd__dfxtp_1_3_ clkbuf_3_1_0_mem_bottom_track_1.prog_clk/X
+ mux_bottom_track_9.mux_l3_in_1_/S VGND VGND VPWR VPWR mux_bottom_track_9.mux_l4_in_0_/S
+ sky130_fd_sc_hd__dfxtp_1
XFILLER_9_24 VGND VGND VPWR VPWR sky130_fd_sc_hd__decap_4
XANTENNA_mux_left_track_5.mux_l2_in_6__A1 left_bottom_grid_pin_39_ VGND VGND VPWR
+ VPWR sky130_fd_sc_hd__diode_2
XANTENNA_mux_right_track_4.mux_l2_in_2__A0 right_bottom_grid_pin_37_ VGND VGND VPWR
+ VPWR sky130_fd_sc_hd__diode_2
XFILLER_20_200 VGND VGND VPWR VPWR sky130_fd_sc_hd__decap_12
XANTENNA__061__A chanx_right_in[4] VGND VGND VPWR VPWR sky130_fd_sc_hd__diode_2
X_112_ _112_/A VGND VGND VPWR VPWR chany_bottom_out[16] sky130_fd_sc_hd__buf_2
XFILLER_11_222 VGND VGND VPWR VPWR sky130_fd_sc_hd__fill_1
X_043_ VGND VGND VPWR VPWR _043_/HI _043_/LO sky130_fd_sc_hd__conb_1
Xmux_right_track_8.mux_l3_in_1_ mux_right_track_8.mux_l2_in_3_/X mux_right_track_8.mux_l2_in_2_/X
+ mux_right_track_8.mux_l3_in_1_/S VGND VGND VPWR VPWR mux_right_track_8.mux_l3_in_1_/X
+ sky130_fd_sc_hd__mux2_1
Xmem_bottom_track_25.sky130_fd_sc_hd__dfxtp_1_0_ clkbuf_3_6_0_mem_bottom_track_1.prog_clk/X
+ mux_bottom_track_17.mux_l4_in_0_/S VGND VGND VPWR VPWR mux_bottom_track_25.mux_l1_in_1_/S
+ sky130_fd_sc_hd__dfxtp_1
Xclk_2_E_FTB01 clk_2_N_in VGND VGND VPWR VPWR clk_2_E_out sky130_fd_sc_hd__buf_4
Xmux_top_track_0.mux_l3_in_1_ mux_top_track_0.mux_l2_in_3_/X mux_top_track_0.mux_l2_in_2_/X
+ mux_top_track_0.mux_l3_in_0_/S VGND VGND VPWR VPWR mux_top_track_0.mux_l3_in_1_/X
+ sky130_fd_sc_hd__mux2_1
XFILLER_4_207 VGND VGND VPWR VPWR sky130_fd_sc_hd__decap_6
XFILLER_29_65 VGND VGND VPWR VPWR sky130_fd_sc_hd__decap_3
Xmem_top_track_16.sky130_fd_sc_hd__dfxtp_1_2_ clkbuf_3_3_0_mem_bottom_track_1.prog_clk/X
+ mux_top_track_16.mux_l2_in_1_/S VGND VGND VPWR VPWR mux_top_track_16.mux_l3_in_0_/S
+ sky130_fd_sc_hd__dfxtp_1
Xmux_right_track_8.mux_l2_in_2_ chanx_left_in[6] chany_bottom_in[16] mux_right_track_8.mux_l2_in_3_/S
+ VGND VGND VPWR VPWR mux_right_track_8.mux_l2_in_2_/X sky130_fd_sc_hd__mux2_1
XPHY_150 VGND VPWR sky130_fd_sc_hd__tapvpwrvgnd_1
XPHY_161 VGND VPWR sky130_fd_sc_hd__tapvpwrvgnd_1
XPHY_172 VGND VPWR sky130_fd_sc_hd__tapvpwrvgnd_1
XPHY_183 VGND VPWR sky130_fd_sc_hd__tapvpwrvgnd_1
Xmux_top_track_0.mux_l2_in_2_ chanx_left_in[2] mux_top_track_0.mux_l1_in_4_/X mux_top_track_0.mux_l2_in_3_/S
+ VGND VGND VPWR VPWR mux_top_track_0.mux_l2_in_2_/X sky130_fd_sc_hd__mux2_1
Xmem_bottom_track_3.sky130_fd_sc_hd__dfxtp_1_1_ clkbuf_3_4_0_mem_bottom_track_1.prog_clk/X
+ mux_bottom_track_3.mux_l1_in_1_/S VGND VGND VPWR VPWR mux_bottom_track_3.mux_l2_in_3_/S
+ sky130_fd_sc_hd__dfxtp_1
XANTENNA_mux_top_track_2.mux_l1_in_1__A0 top_left_grid_pin_49_ VGND VGND VPWR VPWR
+ sky130_fd_sc_hd__diode_2
Xmux_top_track_0.mux_l1_in_3_ chany_bottom_in[2] chanx_right_in[12] mux_top_track_0.mux_l1_in_1_/S
+ VGND VGND VPWR VPWR mux_top_track_0.mux_l1_in_3_/X sky130_fd_sc_hd__mux2_1
XANTENNA_mux_top_track_0.mux_l1_in_3__A0 chany_bottom_in[2] VGND VGND VPWR VPWR sky130_fd_sc_hd__diode_2
XFILLER_5_121 VGND VGND VPWR VPWR sky130_fd_sc_hd__fill_1
XFILLER_5_132 VGND VGND VPWR VPWR sky130_fd_sc_hd__fill_1
XANTENNA__059__A chanx_right_in[2] VGND VGND VPWR VPWR sky130_fd_sc_hd__diode_2
XFILLER_23_220 VGND VGND VPWR VPWR sky130_fd_sc_hd__decap_3
Xprog_clk_0_FTB00 prog_clk_0_N_in VGND VGND VPWR VPWR prog_clk_0_FTB00/X sky130_fd_sc_hd__buf_8
Xmem_bottom_track_9.sky130_fd_sc_hd__dfxtp_1_2_ clkbuf_3_1_0_mem_bottom_track_1.prog_clk/X
+ mux_bottom_track_9.mux_l2_in_3_/S VGND VGND VPWR VPWR mux_bottom_track_9.mux_l3_in_1_/S
+ sky130_fd_sc_hd__dfxtp_1
XFILLER_29_3 VGND VGND VPWR VPWR sky130_fd_sc_hd__decap_4
XANTENNA_mux_right_track_4.mux_l2_in_2__A1 right_bottom_grid_pin_36_ VGND VGND VPWR
+ VPWR sky130_fd_sc_hd__diode_2
XFILLER_20_212 VGND VGND VPWR VPWR sky130_fd_sc_hd__fill_2
XANTENNA_mux_top_track_0.mux_l2_in_2__A0 chanx_left_in[2] VGND VGND VPWR VPWR sky130_fd_sc_hd__diode_2
X_111_ chany_top_in[14] VGND VGND VPWR VPWR chany_bottom_out[15] sky130_fd_sc_hd__buf_2
X_042_ VGND VGND VPWR VPWR _042_/HI _042_/LO sky130_fd_sc_hd__conb_1
Xmux_right_track_8.mux_l3_in_0_ mux_right_track_8.mux_l2_in_1_/X mux_right_track_8.mux_l2_in_0_/X
+ mux_right_track_8.mux_l3_in_1_/S VGND VGND VPWR VPWR mux_right_track_8.mux_l3_in_0_/X
+ sky130_fd_sc_hd__mux2_1
Xmux_top_track_0.mux_l3_in_0_ mux_top_track_0.mux_l2_in_1_/X mux_top_track_0.mux_l2_in_0_/X
+ mux_top_track_0.mux_l3_in_0_/S VGND VGND VPWR VPWR mux_top_track_0.mux_l3_in_0_/X
+ sky130_fd_sc_hd__mux2_1
Xprog_clk_3_N_FTB01 prog_clk_3_N_in VGND VGND VPWR VPWR prog_clk_3_N_out sky130_fd_sc_hd__buf_4
XANTENNA_mux_bottom_track_3.mux_l1_in_4__A0 chanx_left_in[3] VGND VGND VPWR VPWR sky130_fd_sc_hd__diode_2
Xmem_top_track_16.sky130_fd_sc_hd__dfxtp_1_1_ clkbuf_3_3_0_mem_bottom_track_1.prog_clk/X
+ mux_top_track_16.mux_l1_in_0_/S VGND VGND VPWR VPWR mux_top_track_16.mux_l2_in_1_/S
+ sky130_fd_sc_hd__dfxtp_1
XANTENNA_mux_bottom_track_5.mux_l2_in_1__A0 chanx_right_in[14] VGND VGND VPWR VPWR
+ sky130_fd_sc_hd__diode_2
XANTENNA__067__A chanx_right_in[10] VGND VGND VPWR VPWR sky130_fd_sc_hd__diode_2
XFILLER_0_222 VGND VGND VPWR VPWR sky130_fd_sc_hd__fill_1
Xmux_right_track_8.mux_l2_in_1_ chany_bottom_in[6] mux_right_track_8.mux_l1_in_2_/X
+ mux_right_track_8.mux_l2_in_3_/S VGND VGND VPWR VPWR mux_right_track_8.mux_l2_in_1_/X
+ sky130_fd_sc_hd__mux2_1
XPHY_140 VGND VPWR sky130_fd_sc_hd__tapvpwrvgnd_1
XPHY_151 VGND VPWR sky130_fd_sc_hd__tapvpwrvgnd_1
XPHY_162 VGND VPWR sky130_fd_sc_hd__tapvpwrvgnd_1
XPHY_173 VGND VPWR sky130_fd_sc_hd__tapvpwrvgnd_1
XPHY_184 VGND VPWR sky130_fd_sc_hd__tapvpwrvgnd_1
Xmux_top_track_0.mux_l2_in_1_ mux_top_track_0.mux_l1_in_3_/X mux_top_track_0.mux_l1_in_2_/X
+ mux_top_track_0.mux_l2_in_3_/S VGND VGND VPWR VPWR mux_top_track_0.mux_l2_in_1_/X
+ sky130_fd_sc_hd__mux2_1
Xmem_bottom_track_3.sky130_fd_sc_hd__dfxtp_1_0_ clkbuf_3_4_0_mem_bottom_track_1.prog_clk/X
+ mux_bottom_track_1.mux_l4_in_0_/S VGND VGND VPWR VPWR mux_bottom_track_3.mux_l1_in_1_/S
+ sky130_fd_sc_hd__dfxtp_1
XFILLER_7_80 VGND VGND VPWR VPWR sky130_fd_sc_hd__fill_1
XANTENNA_mux_left_track_1.mux_l1_in_1__A0 chanx_right_in[2] VGND VGND VPWR VPWR sky130_fd_sc_hd__diode_2
XANTENNA_mux_top_track_2.mux_l1_in_1__A1 top_left_grid_pin_47_ VGND VGND VPWR VPWR
+ sky130_fd_sc_hd__diode_2
Xmux_right_track_8.mux_l1_in_2_ chany_bottom_in[3] right_bottom_grid_pin_38_ mux_right_track_8.mux_l1_in_0_/S
+ VGND VGND VPWR VPWR mux_right_track_8.mux_l1_in_2_/X sky130_fd_sc_hd__mux2_1
XANTENNA_mux_top_track_0.mux_l1_in_3__A1 chanx_right_in[12] VGND VGND VPWR VPWR sky130_fd_sc_hd__diode_2
Xmux_top_track_0.mux_l1_in_2_ chanx_right_in[2] chanx_right_in[1] mux_top_track_0.mux_l1_in_1_/S
+ VGND VGND VPWR VPWR mux_top_track_0.mux_l1_in_2_/X sky130_fd_sc_hd__mux2_1
XFILLER_5_177 VGND VGND VPWR VPWR sky130_fd_sc_hd__fill_2
Xmux_top_track_16.sky130_fd_sc_hd__buf_4_0_ mux_top_track_16.mux_l4_in_0_/X VGND VGND
+ VPWR VPWR _124_/A sky130_fd_sc_hd__buf_4
XFILLER_23_210 VGND VGND VPWR VPWR sky130_fd_sc_hd__decap_4
XFILLER_23_79 VGND VGND VPWR VPWR sky130_fd_sc_hd__fill_1
XANTENNA__075__A chanx_right_in[18] VGND VGND VPWR VPWR sky130_fd_sc_hd__diode_2
Xmem_bottom_track_9.sky130_fd_sc_hd__dfxtp_1_1_ clkbuf_3_1_0_mem_bottom_track_1.prog_clk/X
+ mux_bottom_track_9.mux_l1_in_2_/S VGND VGND VPWR VPWR mux_bottom_track_9.mux_l2_in_3_/S
+ sky130_fd_sc_hd__dfxtp_1
XFILLER_9_37 VGND VGND VPWR VPWR sky130_fd_sc_hd__fill_1
Xmux_bottom_track_25.mux_l2_in_3_ _046_/HI chanx_left_in[19] mux_bottom_track_25.mux_l2_in_3_/S
+ VGND VGND VPWR VPWR mux_bottom_track_25.mux_l2_in_3_/X sky130_fd_sc_hd__mux2_1
XANTENNA_clk_2_N_FTB01_A clk_2_N_in VGND VGND VPWR VPWR sky130_fd_sc_hd__diode_2
X_110_ chany_top_in[13] VGND VGND VPWR VPWR chany_bottom_out[14] sky130_fd_sc_hd__buf_2
Xmem_bottom_track_17.sky130_fd_sc_hd__dfxtp_1_3_ clkbuf_3_6_0_mem_bottom_track_1.prog_clk/X
+ mux_bottom_track_17.mux_l3_in_1_/S VGND VGND VPWR VPWR mux_bottom_track_17.mux_l4_in_0_/S
+ sky130_fd_sc_hd__dfxtp_1
X_041_ VGND VGND VPWR VPWR _041_/HI _041_/LO sky130_fd_sc_hd__conb_1
Xmux_right_track_4.mux_l2_in_7_ _035_/HI chanx_left_in[14] mux_right_track_4.mux_l2_in_2_/S
+ VGND VGND VPWR VPWR mux_right_track_4.mux_l2_in_7_/X sky130_fd_sc_hd__mux2_1
XANTENNA_mux_right_track_8.mux_l1_in_2__A0 chany_bottom_in[3] VGND VGND VPWR VPWR
+ sky130_fd_sc_hd__diode_2
XFILLER_29_45 VGND VGND VPWR VPWR sky130_fd_sc_hd__decap_6
Xmem_top_track_16.sky130_fd_sc_hd__dfxtp_1_0_ clkbuf_3_3_0_mem_bottom_track_1.prog_clk/X
+ mux_top_track_8.mux_l4_in_0_/S VGND VGND VPWR VPWR mux_top_track_16.mux_l1_in_0_/S
+ sky130_fd_sc_hd__dfxtp_1
XANTENNA_mux_bottom_track_3.mux_l1_in_4__A1 bottom_left_grid_pin_49_ VGND VGND VPWR
+ VPWR sky130_fd_sc_hd__diode_2
Xmux_bottom_track_9.mux_l2_in_3_ _050_/HI chanx_left_in[16] mux_bottom_track_9.mux_l2_in_3_/S
+ VGND VGND VPWR VPWR mux_bottom_track_9.mux_l2_in_3_/X sky130_fd_sc_hd__mux2_1
XANTENNA_mux_bottom_track_5.mux_l2_in_1__A1 chanx_right_in[7] VGND VGND VPWR VPWR
+ sky130_fd_sc_hd__diode_2
Xmux_bottom_track_25.mux_l4_in_0_ mux_bottom_track_25.mux_l3_in_1_/X mux_bottom_track_25.mux_l3_in_0_/X
+ mux_bottom_track_25.mux_l4_in_0_/S VGND VGND VPWR VPWR mux_bottom_track_25.mux_l4_in_0_/X
+ sky130_fd_sc_hd__mux2_1
XANTENNA__083__A chanx_left_in[6] VGND VGND VPWR VPWR sky130_fd_sc_hd__diode_2
XFILLER_31_13 VGND VGND VPWR VPWR sky130_fd_sc_hd__decap_8
Xmux_top_track_0.sky130_fd_sc_hd__buf_4_0_ mux_top_track_0.mux_l4_in_0_/X VGND VGND
+ VPWR VPWR _116_/A sky130_fd_sc_hd__buf_4
Xmux_right_track_8.mux_l2_in_0_ mux_right_track_8.mux_l1_in_1_/X mux_right_track_8.mux_l1_in_0_/X
+ mux_right_track_8.mux_l2_in_3_/S VGND VGND VPWR VPWR mux_right_track_8.mux_l2_in_0_/X
+ sky130_fd_sc_hd__mux2_1
XPHY_130 VGND VPWR sky130_fd_sc_hd__tapvpwrvgnd_1
XPHY_141 VGND VPWR sky130_fd_sc_hd__tapvpwrvgnd_1
XPHY_152 VGND VPWR sky130_fd_sc_hd__tapvpwrvgnd_1
XFILLER_24_190 VGND VGND VPWR VPWR sky130_fd_sc_hd__decap_12
XANTENNA_mux_right_track_8.mux_l2_in_1__A0 chany_bottom_in[6] VGND VGND VPWR VPWR
+ sky130_fd_sc_hd__diode_2
XPHY_163 VGND VPWR sky130_fd_sc_hd__tapvpwrvgnd_1
XPHY_174 VGND VPWR sky130_fd_sc_hd__tapvpwrvgnd_1
XPHY_185 VGND VPWR sky130_fd_sc_hd__tapvpwrvgnd_1
Xmux_top_track_0.mux_l2_in_0_ mux_top_track_0.mux_l1_in_1_/X mux_top_track_0.mux_l1_in_0_/X
+ mux_top_track_0.mux_l2_in_3_/S VGND VGND VPWR VPWR mux_top_track_0.mux_l2_in_0_/X
+ sky130_fd_sc_hd__mux2_1
XFILLER_30_160 VGND VGND VPWR VPWR sky130_fd_sc_hd__fill_1
XFILLER_30_171 VGND VGND VPWR VPWR sky130_fd_sc_hd__fill_1
XANTENNA_mux_left_track_1.mux_l1_in_1__A1 chany_top_in[12] VGND VGND VPWR VPWR sky130_fd_sc_hd__diode_2
XANTENNA_mux_bottom_track_3.mux_l2_in_3__A1 chanx_left_in[13] VGND VGND VPWR VPWR
+ sky130_fd_sc_hd__diode_2
Xmux_bottom_track_25.mux_l3_in_1_ mux_bottom_track_25.mux_l2_in_3_/X mux_bottom_track_25.mux_l2_in_2_/X
+ mux_bottom_track_25.mux_l3_in_1_/S VGND VGND VPWR VPWR mux_bottom_track_25.mux_l3_in_1_/X
+ sky130_fd_sc_hd__mux2_1
Xmux_bottom_track_9.mux_l4_in_0_ mux_bottom_track_9.mux_l3_in_1_/X mux_bottom_track_9.mux_l3_in_0_/X
+ mux_bottom_track_9.mux_l4_in_0_/S VGND VGND VPWR VPWR mux_bottom_track_9.mux_l4_in_0_/X
+ sky130_fd_sc_hd__mux2_1
Xmux_right_track_8.mux_l1_in_1_ right_bottom_grid_pin_34_ chany_top_in[16] mux_right_track_8.mux_l1_in_0_/S
+ VGND VGND VPWR VPWR mux_right_track_8.mux_l1_in_1_/X sky130_fd_sc_hd__mux2_1
Xmux_top_track_0.mux_l1_in_1_ top_left_grid_pin_48_ top_left_grid_pin_46_ mux_top_track_0.mux_l1_in_1_/S
+ VGND VGND VPWR VPWR mux_top_track_0.mux_l1_in_1_/X sky130_fd_sc_hd__mux2_1
XANTENNA_mux_bottom_track_17.mux_l1_in_0__A0 chany_top_in[17] VGND VGND VPWR VPWR
+ sky130_fd_sc_hd__diode_2
XANTENNA_mux_right_track_4.mux_l2_in_5__A0 chany_bottom_in[7] VGND VGND VPWR VPWR
+ sky130_fd_sc_hd__diode_2
XFILLER_23_58 VGND VGND VPWR VPWR sky130_fd_sc_hd__decap_3
XANTENNA__091__A chanx_left_in[14] VGND VGND VPWR VPWR sky130_fd_sc_hd__diode_2
Xmem_bottom_track_9.sky130_fd_sc_hd__dfxtp_1_0_ clkbuf_3_1_0_mem_bottom_track_1.prog_clk/X
+ mux_bottom_track_5.mux_l5_in_0_/S VGND VGND VPWR VPWR mux_bottom_track_9.mux_l1_in_2_/S
+ sky130_fd_sc_hd__dfxtp_1
XFILLER_13_80 VGND VGND VPWR VPWR sky130_fd_sc_hd__fill_1
Xmux_bottom_track_25.mux_l2_in_2_ chanx_left_in[18] chanx_left_in[9] mux_bottom_track_25.mux_l2_in_3_/S
+ VGND VGND VPWR VPWR mux_bottom_track_25.mux_l2_in_2_/X sky130_fd_sc_hd__mux2_1
Xmux_bottom_track_9.mux_l3_in_1_ mux_bottom_track_9.mux_l2_in_3_/X mux_bottom_track_9.mux_l2_in_2_/X
+ mux_bottom_track_9.mux_l3_in_1_/S VGND VGND VPWR VPWR mux_bottom_track_9.mux_l3_in_1_/X
+ sky130_fd_sc_hd__mux2_1
Xmem_bottom_track_17.sky130_fd_sc_hd__dfxtp_1_2_ clkbuf_3_6_0_mem_bottom_track_1.prog_clk/X
+ mux_bottom_track_17.mux_l2_in_2_/S VGND VGND VPWR VPWR mux_bottom_track_17.mux_l3_in_1_/S
+ sky130_fd_sc_hd__dfxtp_1
XANTENNA__086__A chanx_left_in[9] VGND VGND VPWR VPWR sky130_fd_sc_hd__diode_2
XFILLER_1_3 VGND VGND VPWR VPWR sky130_fd_sc_hd__decap_8
X_040_ VGND VGND VPWR VPWR _040_/HI _040_/LO sky130_fd_sc_hd__conb_1
XANTENNA_prog_clk_2_E_FTB01_A prog_clk_2_N_in VGND VGND VPWR VPWR sky130_fd_sc_hd__diode_2
Xmux_right_track_4.mux_l2_in_6_ chanx_left_in[5] chany_bottom_in[14] mux_right_track_4.mux_l2_in_2_/S
+ VGND VGND VPWR VPWR mux_right_track_4.mux_l2_in_6_/X sky130_fd_sc_hd__mux2_1
XANTENNA_mux_right_track_8.mux_l1_in_2__A1 right_bottom_grid_pin_38_ VGND VGND VPWR
+ VPWR sky130_fd_sc_hd__diode_2
XFILLER_29_79 VGND VGND VPWR VPWR sky130_fd_sc_hd__decap_3
XFILLER_10_70 VGND VGND VPWR VPWR sky130_fd_sc_hd__fill_1
Xmux_bottom_track_9.mux_l2_in_2_ chanx_left_in[11] chanx_left_in[6] mux_bottom_track_9.mux_l2_in_3_/S
+ VGND VGND VPWR VPWR mux_bottom_track_9.mux_l2_in_2_/X sky130_fd_sc_hd__mux2_1
XFILLER_33_180 VGND VGND VPWR VPWR sky130_fd_sc_hd__decap_6
XANTENNA_mux_top_track_2.mux_l1_in_4__A0 chanx_left_in[4] VGND VGND VPWR VPWR sky130_fd_sc_hd__diode_2
XPHY_120 VGND VPWR sky130_fd_sc_hd__tapvpwrvgnd_1
XPHY_131 VGND VPWR sky130_fd_sc_hd__tapvpwrvgnd_1
XPHY_142 VGND VPWR sky130_fd_sc_hd__tapvpwrvgnd_1
XPHY_153 VGND VPWR sky130_fd_sc_hd__tapvpwrvgnd_1
XFILLER_24_180 VGND VGND VPWR VPWR sky130_fd_sc_hd__fill_1
XPHY_164 VGND VPWR sky130_fd_sc_hd__tapvpwrvgnd_1
XPHY_175 VGND VPWR sky130_fd_sc_hd__tapvpwrvgnd_1
XPHY_186 VGND VPWR sky130_fd_sc_hd__tapvpwrvgnd_1
XANTENNA_mux_top_track_4.mux_l2_in_1__A0 top_left_grid_pin_46_ VGND VGND VPWR VPWR
+ sky130_fd_sc_hd__diode_2