* NGSPICE file created from sb_1__3_.ext - technology: EFS8A

* Black-box entry subcircuit for scs8hd_decap_8 abstract view
.subckt scs8hd_decap_8 vgnd vpwr
.ends

* Black-box entry subcircuit for scs8hd_fill_2 abstract view
.subckt scs8hd_fill_2 vpwr vgnd
.ends

* Black-box entry subcircuit for scs8hd_inv_1 abstract view
.subckt scs8hd_inv_1 A Y vgnd vpwr
.ends

* Black-box entry subcircuit for scs8hd_decap_4 abstract view
.subckt scs8hd_decap_4 vgnd vpwr
.ends

* Black-box entry subcircuit for scs8hd_decap_3 abstract view
.subckt scs8hd_decap_3 vgnd vpwr
.ends

* Black-box entry subcircuit for scs8hd_fill_1 abstract view
.subckt scs8hd_fill_1 vgnd vpwr
.ends

* Black-box entry subcircuit for scs8hd_diode_2 abstract view
.subckt scs8hd_diode_2 DIODE vgnd vpwr
.ends

* Black-box entry subcircuit for scs8hd_decap_6 abstract view
.subckt scs8hd_decap_6 vgnd vpwr
.ends

* Black-box entry subcircuit for scs8hd_decap_12 abstract view
.subckt scs8hd_decap_12 vgnd vpwr
.ends

* Black-box entry subcircuit for scs8hd_ebufn_2 abstract view
.subckt scs8hd_ebufn_2 A TEB Z vgnd vpwr
.ends

* Black-box entry subcircuit for scs8hd_inv_8 abstract view
.subckt scs8hd_inv_8 A Y vgnd vpwr
.ends

* Black-box entry subcircuit for scs8hd_nor2_4 abstract view
.subckt scs8hd_nor2_4 A B Y vgnd vpwr
.ends

* Black-box entry subcircuit for scs8hd_or3_4 abstract view
.subckt scs8hd_or3_4 A B C X vgnd vpwr
.ends

* Black-box entry subcircuit for scs8hd_lpflow_inputisolatch_1 abstract view
.subckt scs8hd_lpflow_inputisolatch_1 D Q SLEEPB vgnd vpwr
.ends

* Black-box entry subcircuit for scs8hd_tapvpwrvgnd_1 abstract view
.subckt scs8hd_tapvpwrvgnd_1 vgnd vpwr
.ends

* Black-box entry subcircuit for scs8hd_buf_1 abstract view
.subckt scs8hd_buf_1 A X vgnd vpwr
.ends

* Black-box entry subcircuit for scs8hd_buf_2 abstract view
.subckt scs8hd_buf_2 A X vgnd vpwr
.ends

* Black-box entry subcircuit for scs8hd_nor4_4 abstract view
.subckt scs8hd_nor4_4 A B C D Y vgnd vpwr
.ends

* Black-box entry subcircuit for scs8hd_conb_1 abstract view
.subckt scs8hd_conb_1 HI LO vgnd vpwr
.ends

.subckt sb_1__3_ address[0] address[1] address[2] address[3] address[4] address[5]
+ address[6] bottom_left_grid_pin_13_ bottom_right_grid_pin_11_ chanx_left_in[0] chanx_left_in[1]
+ chanx_left_in[2] chanx_left_in[3] chanx_left_in[4] chanx_left_in[5] chanx_left_in[6]
+ chanx_left_in[7] chanx_left_in[8] chanx_left_out[0] chanx_left_out[1] chanx_left_out[2]
+ chanx_left_out[3] chanx_left_out[4] chanx_left_out[5] chanx_left_out[6] chanx_left_out[7]
+ chanx_left_out[8] chanx_right_in[0] chanx_right_in[1] chanx_right_in[2] chanx_right_in[3]
+ chanx_right_in[4] chanx_right_in[5] chanx_right_in[6] chanx_right_in[7] chanx_right_in[8]
+ chanx_right_out[0] chanx_right_out[1] chanx_right_out[2] chanx_right_out[3] chanx_right_out[4]
+ chanx_right_out[5] chanx_right_out[6] chanx_right_out[7] chanx_right_out[8] chany_bottom_in[0]
+ chany_bottom_in[1] chany_bottom_in[2] chany_bottom_in[3] chany_bottom_in[4] chany_bottom_in[5]
+ chany_bottom_in[6] chany_bottom_in[7] chany_bottom_in[8] chany_bottom_out[0] chany_bottom_out[1]
+ chany_bottom_out[2] chany_bottom_out[3] chany_bottom_out[4] chany_bottom_out[5]
+ chany_bottom_out[6] chany_bottom_out[7] chany_bottom_out[8] data_in enable left_bottom_grid_pin_12_
+ left_top_grid_pin_11_ left_top_grid_pin_13_ left_top_grid_pin_15_ left_top_grid_pin_1_
+ left_top_grid_pin_3_ left_top_grid_pin_5_ left_top_grid_pin_7_ left_top_grid_pin_9_
+ right_bottom_grid_pin_12_ right_top_grid_pin_11_ right_top_grid_pin_13_ right_top_grid_pin_15_
+ right_top_grid_pin_1_ right_top_grid_pin_3_ right_top_grid_pin_5_ right_top_grid_pin_7_
+ right_top_grid_pin_9_ vpwr vgnd
XFILLER_22_144 vgnd vpwr scs8hd_decap_8
XFILLER_7_7 vpwr vgnd scs8hd_fill_2
Xmux_bottom_track_1.INVTX1_1_.scs8hd_inv_1 chanx_left_in[1] mux_bottom_track_1.INVTX1_1_.scs8hd_inv_1/Y
+ vgnd vpwr scs8hd_inv_1
XFILLER_26_96 vgnd vpwr scs8hd_decap_4
XFILLER_26_63 vgnd vpwr scs8hd_decap_3
XFILLER_26_41 vgnd vpwr scs8hd_fill_1
XFILLER_13_111 vpwr vgnd scs8hd_fill_2
XANTENNA_mem_bottom_track_7.LATCH_1_.latch_D data_in vgnd vpwr scs8hd_diode_2
XFILLER_13_155 vpwr vgnd scs8hd_fill_2
XFILLER_13_199 vgnd vpwr scs8hd_decap_6
XFILLER_27_236 vgnd vpwr scs8hd_decap_8
XANTENNA_mux_left_track_9.mux_l2_in_0_.TGATE_1_.scs8hd_ebufn_2_A mux_left_track_9.mux_l1_in_1_.TGATE_0_.scs8hd_ebufn_2/Z
+ vgnd vpwr scs8hd_diode_2
XFILLER_10_103 vpwr vgnd scs8hd_fill_2
XFILLER_10_147 vgnd vpwr scs8hd_decap_6
XFILLER_37_62 vgnd vpwr scs8hd_decap_12
XFILLER_37_95 vgnd vpwr scs8hd_decap_12
XANTENNA__108__B address[2] vgnd vpwr scs8hd_diode_2
XFILLER_18_269 vgnd vpwr scs8hd_decap_6
XFILLER_5_173 vgnd vpwr scs8hd_decap_8
XANTENNA__124__A address[4] vgnd vpwr scs8hd_diode_2
XANTENNA_mux_right_track_16.mux_l1_in_1_.TGATE_2_.scs8hd_ebufn_2_TEB mem_right_track_16.LATCH_2_.latch/Q
+ vgnd vpwr scs8hd_diode_2
XFILLER_5_184 vgnd vpwr scs8hd_decap_12
XFILLER_24_228 vpwr vgnd scs8hd_fill_2
XFILLER_24_206 vgnd vpwr scs8hd_decap_8
XFILLER_32_250 vgnd vpwr scs8hd_decap_4
Xmux_left_track_1.mux_l2_in_0_.TGATE_0_.scs8hd_ebufn_2 mux_left_track_1.mux_l1_in_0_.TGATE_0_.scs8hd_ebufn_2/Z
+ mem_left_track_1.LATCH_3_.latch/Q mux_left_track_1.tap_buf4_0_.scs8hd_inv_1/A vgnd
+ vpwr scs8hd_ebufn_2
X_200_ _200_/A _200_/Y vgnd vpwr scs8hd_inv_8
XANTENNA_mem_right_track_16.LATCH_4_.latch_D data_in vgnd vpwr scs8hd_diode_2
XFILLER_23_31 vpwr vgnd scs8hd_fill_2
X_131_ _157_/A _133_/B _131_/Y vgnd vpwr scs8hd_nor2_4
XANTENNA__119__A _119_/A vgnd vpwr scs8hd_diode_2
Xmux_bottom_track_9.tap_buf4_0_.scs8hd_inv_1 mux_bottom_track_9.tap_buf4_0_.scs8hd_inv_1/A
+ _242_/A vgnd vpwr scs8hd_inv_1
XFILLER_12_209 vgnd vpwr scs8hd_decap_4
Xmux_bottom_track_1.mux_l1_in_0_.TGATE_1_.scs8hd_ebufn_2 mux_bottom_track_1.INVTX1_1_.scs8hd_inv_1/Y
+ _188_/Y mux_bottom_track_1.mux_l2_in_0_.TGATE_0_.scs8hd_ebufn_2/A vgnd vpwr scs8hd_ebufn_2
XANTENNA_mem_bottom_track_17.LATCH_0_.latch_D data_in vgnd vpwr scs8hd_diode_2
XFILLER_18_64 vpwr vgnd scs8hd_fill_2
XFILLER_34_96 vgnd vpwr scs8hd_decap_3
XFILLER_34_85 vgnd vpwr scs8hd_decap_6
XFILLER_34_30 vgnd vpwr scs8hd_fill_1
XFILLER_11_264 vgnd vpwr scs8hd_decap_12
X_114_ _114_/A address[4] _114_/C _114_/X vgnd vpwr scs8hd_or3_4
XFILLER_7_257 vgnd vpwr scs8hd_decap_12
XANTENNA__105__C _105_/C vgnd vpwr scs8hd_diode_2
XFILLER_38_128 vgnd vpwr scs8hd_decap_6
XFILLER_38_117 vgnd vpwr scs8hd_decap_8
Xmux_left_track_9.INVTX1_3_.scs8hd_inv_1 chany_bottom_in[3] mux_left_track_9.INVTX1_3_.scs8hd_inv_1/Y
+ vgnd vpwr scs8hd_inv_1
XANTENNA__121__B _121_/B vgnd vpwr scs8hd_diode_2
XFILLER_22_7 vgnd vpwr scs8hd_decap_3
Xmux_right_track_16.mux_l2_in_0_.TGATE_1_.scs8hd_ebufn_2 mux_right_track_16.mux_l1_in_1_.TGATE_2_.scs8hd_ebufn_2/Z
+ mem_right_track_16.LATCH_4_.latch/Q mux_right_track_16.tap_buf4_0_.scs8hd_inv_1/A
+ vgnd vpwr scs8hd_ebufn_2
Xmux_right_track_8.mux_l1_in_1_.TGATE_2_.scs8hd_ebufn_2 mux_right_track_8.INVTX1_5_.scs8hd_inv_1/Y
+ mem_right_track_8.LATCH_2_.latch/Q mux_right_track_8.mux_l1_in_1_.TGATE_0_.scs8hd_ebufn_2/Z
+ vgnd vpwr scs8hd_ebufn_2
XANTENNA_mux_right_track_16.mux_l2_in_0_.TGATE_2_.scs8hd_ebufn_2_A mux_right_track_16.mux_l1_in_2_.TGATE_2_.scs8hd_ebufn_2/Z
+ vgnd vpwr scs8hd_diode_2
XFILLER_4_227 vgnd vpwr scs8hd_decap_12
XFILLER_20_10 vpwr vgnd scs8hd_fill_2
XANTENNA__222__A chanx_right_in[5] vgnd vpwr scs8hd_diode_2
XFILLER_28_183 vgnd vpwr scs8hd_fill_1
XFILLER_6_23 vpwr vgnd scs8hd_fill_2
XANTENNA__116__B _112_/X vgnd vpwr scs8hd_diode_2
XANTENNA__132__A _121_/A vgnd vpwr scs8hd_diode_2
XANTENNA_mux_right_track_16.INVTX1_7_.scs8hd_inv_1_A chanx_left_in[6] vgnd vpwr scs8hd_diode_2
XFILLER_6_45 vgnd vpwr scs8hd_decap_6
XANTENNA_mux_bottom_track_17.mux_l1_in_0_.TGATE_1_.scs8hd_ebufn_2_A mux_bottom_track_17.INVTX1_1_.scs8hd_inv_1/Y
+ vgnd vpwr scs8hd_diode_2
XFILLER_13_3 vgnd vpwr scs8hd_decap_4
XFILLER_19_172 vgnd vpwr scs8hd_decap_4
XFILLER_34_186 vgnd vpwr scs8hd_fill_1
XFILLER_34_120 vgnd vpwr scs8hd_decap_4
Xmem_right_track_8.LATCH_1_.latch data_in mem_right_track_8.LATCH_1_.latch/Q _122_/Y
+ vgnd vpwr scs8hd_lpflow_inputisolatch_1
XFILLER_1_208 vgnd vpwr scs8hd_decap_12
XFILLER_25_175 vpwr vgnd scs8hd_fill_2
XFILLER_40_178 vgnd vpwr scs8hd_decap_12
XANTENNA_mux_bottom_track_15.mux_l1_in_0_.TGATE_1_.scs8hd_ebufn_2_TEB _202_/Y vgnd
+ vpwr scs8hd_diode_2
XFILLER_0_252 vpwr vgnd scs8hd_fill_2
XFILLER_0_241 vgnd vpwr scs8hd_decap_6
XANTENNA_mem_left_track_9.LATCH_4_.latch_SLEEPB _148_/Y vgnd vpwr scs8hd_diode_2
XPHY_170 vgnd vpwr scs8hd_tapvpwrvgnd_1
XANTENNA__127__A address[6] vgnd vpwr scs8hd_diode_2
XPHY_192 vgnd vpwr scs8hd_tapvpwrvgnd_1
XPHY_181 vgnd vpwr scs8hd_tapvpwrvgnd_1
XANTENNA_mux_left_track_1.mux_l1_in_2_.TGATE_0_.scs8hd_ebufn_2_A mux_left_track_1.INVTX1_6_.scs8hd_inv_1/Y
+ vgnd vpwr scs8hd_diode_2
XFILLER_26_75 vpwr vgnd scs8hd_fill_2
XFILLER_42_63 vgnd vpwr scs8hd_decap_12
XFILLER_36_215 vgnd vpwr scs8hd_decap_12
Xmux_left_track_9.mux_l2_in_0_.TGATE_2_.scs8hd_ebufn_2 mux_left_track_9.mux_l1_in_2_.TGATE_1_.scs8hd_ebufn_2/Z
+ mem_left_track_9.LATCH_5_.latch/Q mux_left_track_9.tap_buf4_0_.scs8hd_inv_1/A vgnd
+ vpwr scs8hd_ebufn_2
XFILLER_42_218 vgnd vpwr scs8hd_decap_12
XFILLER_27_248 vpwr vgnd scs8hd_fill_2
XANTENNA_mux_right_track_0.INVTX1_4_.scs8hd_inv_1_A chany_bottom_in[4] vgnd vpwr scs8hd_diode_2
Xmux_left_track_1.mux_l1_in_1_.TGATE_1_.scs8hd_ebufn_2 mux_left_track_1.INVTX1_4_.scs8hd_inv_1/Y
+ mem_left_track_1.LATCH_1_.latch/Q mux_left_track_1.mux_l1_in_1_.TGATE_1_.scs8hd_ebufn_2/Z
+ vgnd vpwr scs8hd_ebufn_2
XFILLER_12_55 vgnd vpwr scs8hd_decap_4
XFILLER_12_88 vgnd vpwr scs8hd_decap_4
XANTENNA__230__A chanx_left_in[6] vgnd vpwr scs8hd_diode_2
XFILLER_37_74 vgnd vpwr scs8hd_decap_6
XFILLER_33_207 vpwr vgnd scs8hd_fill_2
Xmux_left_track_17.mux_l1_in_2_.TGATE_1_.scs8hd_ebufn_2 mux_left_track_17.INVTX1_7_.scs8hd_inv_1/Y
+ mem_left_track_17.LATCH_1_.latch/Q mux_left_track_17.mux_l1_in_2_.TGATE_1_.scs8hd_ebufn_2/Z
+ vgnd vpwr scs8hd_ebufn_2
XANTENNA_mux_left_track_17.mux_l2_in_0_.TGATE_0_.scs8hd_ebufn_2_TEB mem_left_track_17.LATCH_3_.latch/Q
+ vgnd vpwr scs8hd_diode_2
XANTENNA__108__C address[0] vgnd vpwr scs8hd_diode_2
XFILLER_5_196 vgnd vpwr scs8hd_decap_12
XFILLER_5_152 vpwr vgnd scs8hd_fill_2
XFILLER_5_141 vpwr vgnd scs8hd_fill_2
XANTENNA_mux_bottom_track_1.mux_l1_in_0_.TGATE_1_.scs8hd_ebufn_2_TEB _188_/Y vgnd
+ vpwr scs8hd_diode_2
XANTENNA_mem_bottom_track_15.LATCH_0_.latch_SLEEPB _184_/Y vgnd vpwr scs8hd_diode_2
XANTENNA__140__A _119_/A vgnd vpwr scs8hd_diode_2
Xmux_right_track_8.INVTX1_4_.scs8hd_inv_1 chany_bottom_in[3] mux_right_track_8.INVTX1_4_.scs8hd_inv_1/Y
+ vgnd vpwr scs8hd_inv_1
XANTENNA_mux_right_track_8.INVTX1_6_.scs8hd_inv_1_A chanx_left_in[1] vgnd vpwr scs8hd_diode_2
XANTENNA_mux_left_track_9.INVTX1_0_.scs8hd_inv_1_A chanx_right_in[1] vgnd vpwr scs8hd_diode_2
XANTENNA_mux_right_track_0.mux_l2_in_0_.TGATE_2_.scs8hd_ebufn_2_A mux_right_track_0.mux_l1_in_2_.TGATE_1_.scs8hd_ebufn_2/Z
+ vgnd vpwr scs8hd_diode_2
XFILLER_23_54 vgnd vpwr scs8hd_fill_1
XFILLER_15_218 vpwr vgnd scs8hd_fill_2
XFILLER_15_229 vpwr vgnd scs8hd_fill_2
XANTENNA_mux_right_track_0.mux_l2_in_0_.TGATE_2_.scs8hd_ebufn_2_TEB mem_right_track_0.LATCH_5_.latch/Q
+ vgnd vpwr scs8hd_diode_2
X_130_ _119_/A _133_/B _130_/Y vgnd vpwr scs8hd_nor2_4
XANTENNA__225__A chanx_right_in[2] vgnd vpwr scs8hd_diode_2
XANTENNA_mem_right_track_0.LATCH_4_.latch_D data_in vgnd vpwr scs8hd_diode_2
Xmux_right_track_16.mux_l1_in_1_.TGATE_2_.scs8hd_ebufn_2 mux_right_track_16.INVTX1_5_.scs8hd_inv_1/Y
+ mem_right_track_16.LATCH_2_.latch/Q mux_right_track_16.mux_l1_in_1_.TGATE_2_.scs8hd_ebufn_2/Z
+ vgnd vpwr scs8hd_ebufn_2
XANTENNA_mux_right_track_16.mux_l1_in_2_.TGATE_1_.scs8hd_ebufn_2_TEB mem_right_track_16.LATCH_1_.latch/Q
+ vgnd vpwr scs8hd_diode_2
XFILLER_2_144 vgnd vpwr scs8hd_decap_8
XANTENNA__119__B _121_/B vgnd vpwr scs8hd_diode_2
XANTENNA__135__A address[6] vgnd vpwr scs8hd_diode_2
XFILLER_9_23 vgnd vpwr scs8hd_decap_3
XFILLER_20_210 vpwr vgnd scs8hd_fill_2
XFILLER_20_276 vgnd vpwr scs8hd_fill_1
XFILLER_18_10 vpwr vgnd scs8hd_fill_2
XANTENNA_mux_bottom_track_17.mux_l1_in_0_.TGATE_0_.scs8hd_ebufn_2_TEB _204_/A vgnd
+ vpwr scs8hd_diode_2
XFILLER_18_32 vgnd vpwr scs8hd_decap_3
X_113_ address[3] _114_/A vgnd vpwr scs8hd_inv_8
XFILLER_11_232 vgnd vpwr scs8hd_decap_12
XFILLER_11_276 vgnd vpwr scs8hd_fill_1
XFILLER_7_269 vgnd vpwr scs8hd_decap_8
XANTENNA_mem_left_track_1.LATCH_0_.latch_SLEEPB _144_/Y vgnd vpwr scs8hd_diode_2
XFILLER_15_7 vgnd vpwr scs8hd_fill_1
Xmux_left_track_1.INVTX1_6_.scs8hd_inv_1 left_top_grid_pin_7_ mux_left_track_1.INVTX1_6_.scs8hd_inv_1/Y
+ vgnd vpwr scs8hd_inv_1
XANTENNA_mux_left_track_9.mux_l1_in_1_.TGATE_1_.scs8hd_ebufn_2_A mux_left_track_9.INVTX1_4_.scs8hd_inv_1/Y
+ vgnd vpwr scs8hd_diode_2
XFILLER_29_118 vpwr vgnd scs8hd_fill_2
XFILLER_37_151 vpwr vgnd scs8hd_fill_2
XFILLER_4_239 vgnd vpwr scs8hd_decap_12
XFILLER_29_53 vpwr vgnd scs8hd_fill_2
XANTENNA_mux_bottom_track_3.mux_l2_in_0_.TGATE_0_.scs8hd_ebufn_2_A mux_bottom_track_3.mux_l2_in_0_.TGATE_0_.scs8hd_ebufn_2/A
+ vgnd vpwr scs8hd_diode_2
XANTENNA__116__C _145_/C vgnd vpwr scs8hd_diode_2
XANTENNA__132__B _133_/B vgnd vpwr scs8hd_diode_2
XANTENNA_mem_right_track_16.LATCH_0_.latch_SLEEPB _134_/Y vgnd vpwr scs8hd_diode_2
XFILLER_19_151 vgnd vpwr scs8hd_decap_3
XANTENNA_mem_bottom_track_13.LATCH_1_.latch_SLEEPB _181_/Y vgnd vpwr scs8hd_diode_2
XANTENNA_mux_left_track_1.mux_l1_in_2_.TGATE_2_.scs8hd_ebufn_2_TEB mem_left_track_1.LATCH_2_.latch/Q
+ vgnd vpwr scs8hd_diode_2
XFILLER_31_76 vpwr vgnd scs8hd_fill_2
XFILLER_15_88 vpwr vgnd scs8hd_fill_2
XANTENNA__233__A _233_/A vgnd vpwr scs8hd_diode_2
XFILLER_16_132 vpwr vgnd scs8hd_fill_2
XFILLER_31_179 vpwr vgnd scs8hd_fill_2
Xmux_left_track_17.INVTX1_1_.scs8hd_inv_1 chanx_right_in[6] mux_left_track_17.INVTX1_1_.scs8hd_inv_1/Y
+ vgnd vpwr scs8hd_inv_1
XPHY_193 vgnd vpwr scs8hd_tapvpwrvgnd_1
Xmux_right_track_16.INVTX1_0_.scs8hd_inv_1 right_top_grid_pin_5_ mux_right_track_16.INVTX1_0_.scs8hd_inv_1/Y
+ vgnd vpwr scs8hd_inv_1
XANTENNA_mux_bottom_track_3.mux_l1_in_0_.TGATE_0_.scs8hd_ebufn_2_TEB _190_/A vgnd
+ vpwr scs8hd_diode_2
XPHY_160 vgnd vpwr scs8hd_tapvpwrvgnd_1
XFILLER_16_143 vgnd vpwr scs8hd_decap_8
XFILLER_16_154 vgnd vpwr scs8hd_decap_3
XPHY_171 vgnd vpwr scs8hd_tapvpwrvgnd_1
XANTENNA__127__B address[5] vgnd vpwr scs8hd_diode_2
XPHY_182 vgnd vpwr scs8hd_tapvpwrvgnd_1
XANTENNA__143__A _122_/A vgnd vpwr scs8hd_diode_2
XFILLER_22_157 vpwr vgnd scs8hd_fill_2
XFILLER_26_32 vgnd vpwr scs8hd_decap_3
XANTENNA__228__A _228_/A vgnd vpwr scs8hd_diode_2
XFILLER_9_117 vgnd vpwr scs8hd_decap_3
XFILLER_13_168 vpwr vgnd scs8hd_fill_2
XANTENNA_mem_left_track_1.LATCH_0_.latch_D data_in vgnd vpwr scs8hd_diode_2
XFILLER_42_75 vgnd vpwr scs8hd_decap_12
XFILLER_3_58 vgnd vpwr scs8hd_fill_1
Xmux_bottom_track_17.tap_buf4_0_.scs8hd_inv_1 mux_bottom_track_17.tap_buf4_0_.scs8hd_inv_1/A
+ _238_/A vgnd vpwr scs8hd_inv_1
XFILLER_36_227 vgnd vpwr scs8hd_decap_12
XANTENNA_mux_right_track_16.mux_l1_in_1_.TGATE_2_.scs8hd_ebufn_2_A mux_right_track_16.INVTX1_5_.scs8hd_inv_1/Y
+ vgnd vpwr scs8hd_diode_2
XANTENNA__138__A _137_/X vgnd vpwr scs8hd_diode_2
XFILLER_8_150 vgnd vpwr scs8hd_fill_1
XFILLER_12_190 vpwr vgnd scs8hd_fill_2
XFILLER_12_23 vpwr vgnd scs8hd_fill_2
XFILLER_12_45 vgnd vpwr scs8hd_decap_4
XANTENNA_mux_left_track_9.mux_l1_in_0_.TGATE_0_.scs8hd_ebufn_2_TEB mem_left_track_9.LATCH_0_.latch/Q
+ vgnd vpwr scs8hd_diode_2
XFILLER_38_6 vgnd vpwr scs8hd_decap_12
XANTENNA__140__B _139_/B vgnd vpwr scs8hd_diode_2
Xmux_right_track_0.INVTX1_7_.scs8hd_inv_1 chanx_left_in[4] mux_right_track_0.INVTX1_7_.scs8hd_inv_1/Y
+ vgnd vpwr scs8hd_inv_1
XFILLER_23_22 vpwr vgnd scs8hd_fill_2
XFILLER_23_99 vpwr vgnd scs8hd_fill_2
XFILLER_3_3 vpwr vgnd scs8hd_fill_2
XANTENNA__241__A _241_/A vgnd vpwr scs8hd_diode_2
XFILLER_0_15 vgnd vpwr scs8hd_decap_12
XANTENNA_mux_bottom_track_1.mux_l1_in_1_.TGATE_0_.scs8hd_ebufn_2_TEB _188_/A vgnd
+ vpwr scs8hd_diode_2
XFILLER_9_35 vpwr vgnd scs8hd_fill_2
XFILLER_14_274 vgnd vpwr scs8hd_fill_1
XFILLER_9_46 vpwr vgnd scs8hd_fill_2
XFILLER_9_57 vpwr vgnd scs8hd_fill_2
X_189_ _189_/A _189_/Y vgnd vpwr scs8hd_inv_8
XFILLER_36_3 vgnd vpwr scs8hd_decap_12
XANTENNA__151__A _122_/A vgnd vpwr scs8hd_diode_2
XANTENNA_mux_right_track_16.INVTX1_2_.scs8hd_inv_1_A right_bottom_grid_pin_12_ vgnd
+ vpwr scs8hd_diode_2
XFILLER_34_32 vgnd vpwr scs8hd_decap_12
XFILLER_18_77 vgnd vpwr scs8hd_decap_12
XFILLER_34_76 vpwr vgnd scs8hd_fill_2
XANTENNA__236__A chanx_left_in[0] vgnd vpwr scs8hd_diode_2
XFILLER_7_204 vgnd vpwr scs8hd_decap_12
XFILLER_7_248 vpwr vgnd scs8hd_fill_2
XFILLER_11_200 vpwr vgnd scs8hd_fill_2
X_112_ address[5] _112_/X vgnd vpwr scs8hd_buf_1
XANTENNA__146__A _145_/X vgnd vpwr scs8hd_diode_2
XFILLER_1_91 vpwr vgnd scs8hd_fill_2
XFILLER_20_23 vpwr vgnd scs8hd_fill_2
XFILLER_20_45 vgnd vpwr scs8hd_decap_8
XFILLER_29_76 vpwr vgnd scs8hd_fill_2
XANTENNA_mux_bottom_track_11.mux_l2_in_0_.TGATE_0_.scs8hd_ebufn_2_A mux_bottom_track_11.mux_l1_in_0_.TGATE_1_.scs8hd_ebufn_2/Z
+ vgnd vpwr scs8hd_diode_2
XFILLER_6_69 vpwr vgnd scs8hd_fill_2
XFILLER_20_6 vpwr vgnd scs8hd_fill_2
XFILLER_34_133 vgnd vpwr scs8hd_decap_3
XANTENNA_mux_right_track_0.mux_l1_in_1_.TGATE_2_.scs8hd_ebufn_2_A mux_right_track_0.INVTX1_5_.scs8hd_inv_1/Y
+ vgnd vpwr scs8hd_diode_2
XANTENNA_mux_left_track_17.mux_l1_in_0_.TGATE_2_.scs8hd_ebufn_2_A mux_left_track_17.INVTX1_2_.scs8hd_inv_1/Y
+ vgnd vpwr scs8hd_diode_2
XFILLER_25_188 vpwr vgnd scs8hd_fill_2
XFILLER_25_155 vpwr vgnd scs8hd_fill_2
XFILLER_25_144 vpwr vgnd scs8hd_fill_2
XANTENNA_mux_bottom_track_11.INVTX1_1_.scs8hd_inv_1_A chanx_right_in[8] vgnd vpwr
+ scs8hd_diode_2
XFILLER_15_23 vpwr vgnd scs8hd_fill_2
XFILLER_31_99 vpwr vgnd scs8hd_fill_2
XFILLER_31_11 vgnd vpwr scs8hd_decap_12
XFILLER_0_276 vgnd vpwr scs8hd_fill_1
Xmux_right_track_0.mux_l1_in_2_.TGATE_2_.scs8hd_ebufn_2 _217_/HI mem_right_track_0.LATCH_2_.latch/Q
+ mux_right_track_0.mux_l1_in_2_.TGATE_1_.scs8hd_ebufn_2/Z vgnd vpwr scs8hd_ebufn_2
XFILLER_31_158 vpwr vgnd scs8hd_fill_2
XFILLER_31_136 vgnd vpwr scs8hd_decap_4
XFILLER_31_114 vpwr vgnd scs8hd_fill_2
XANTENNA_mem_left_track_9.LATCH_4_.latch_D data_in vgnd vpwr scs8hd_diode_2
XANTENNA_mem_right_track_8.LATCH_5_.latch_SLEEPB _118_/Y vgnd vpwr scs8hd_diode_2
XPHY_194 vgnd vpwr scs8hd_tapvpwrvgnd_1
XPHY_150 vgnd vpwr scs8hd_tapvpwrvgnd_1
XPHY_161 vgnd vpwr scs8hd_tapvpwrvgnd_1
XANTENNA__127__C _174_/C vgnd vpwr scs8hd_diode_2
XPHY_172 vgnd vpwr scs8hd_tapvpwrvgnd_1
XPHY_183 vgnd vpwr scs8hd_tapvpwrvgnd_1
XANTENNA__143__B _139_/B vgnd vpwr scs8hd_diode_2
XFILLER_39_225 vgnd vpwr scs8hd_decap_12
XFILLER_39_214 vgnd vpwr scs8hd_decap_4
XANTENNA_mux_bottom_track_7.tap_buf4_0_.scs8hd_inv_1_A mux_bottom_track_7.tap_buf4_0_.scs8hd_inv_1/A
+ vgnd vpwr scs8hd_diode_2
XFILLER_22_125 vpwr vgnd scs8hd_fill_2
XFILLER_30_191 vgnd vpwr scs8hd_decap_6
XFILLER_42_87 vgnd vpwr scs8hd_decap_6
XFILLER_42_32 vgnd vpwr scs8hd_decap_12
XANTENNA_mux_right_track_8.INVTX1_1_.scs8hd_inv_1_A right_top_grid_pin_9_ vgnd vpwr
+ scs8hd_diode_2
XANTENNA__244__A _244_/A vgnd vpwr scs8hd_diode_2
XFILLER_36_239 vgnd vpwr scs8hd_decap_12
XANTENNA__154__A _153_/X vgnd vpwr scs8hd_diode_2
XANTENNA_mux_left_track_17.mux_l2_in_0_.TGATE_0_.scs8hd_ebufn_2_A mux_left_track_17.mux_l1_in_0_.TGATE_1_.scs8hd_ebufn_2/Z
+ vgnd vpwr scs8hd_diode_2
XANTENNA_mux_bottom_track_3.mux_l1_in_1_.TGATE_0_.scs8hd_ebufn_2_A mux_bottom_track_3.INVTX1_2_.scs8hd_inv_1/Y
+ vgnd vpwr scs8hd_diode_2
XFILLER_10_128 vgnd vpwr scs8hd_decap_4
XFILLER_37_10 vpwr vgnd scs8hd_fill_2
XFILLER_18_206 vgnd vpwr scs8hd_decap_6
XFILLER_41_220 vgnd vpwr scs8hd_decap_12
XANTENNA__239__A _239_/A vgnd vpwr scs8hd_diode_2
XFILLER_18_228 vgnd vpwr scs8hd_decap_4
XANTENNA_mux_left_track_17.INVTX1_5_.scs8hd_inv_1_A left_top_grid_pin_5_ vgnd vpwr
+ scs8hd_diode_2
XANTENNA__149__A _157_/A vgnd vpwr scs8hd_diode_2
XFILLER_17_261 vgnd vpwr scs8hd_decap_12
Xmux_bottom_track_17.mux_l2_in_0_.TGATE_0_.scs8hd_ebufn_2 mux_bottom_track_17.mux_l2_in_0_.TGATE_0_.scs8hd_ebufn_2/A
+ _203_/A mux_bottom_track_17.tap_buf4_0_.scs8hd_inv_1/A vgnd vpwr scs8hd_ebufn_2
XFILLER_23_78 vpwr vgnd scs8hd_fill_2
XFILLER_2_157 vgnd vpwr scs8hd_decap_12
XFILLER_2_135 vgnd vpwr scs8hd_fill_1
XANTENNA_mux_bottom_track_1.INVTX1_0_.scs8hd_inv_1_A bottom_right_grid_pin_11_ vgnd
+ vpwr scs8hd_diode_2
XFILLER_0_27 vgnd vpwr scs8hd_decap_4
Xmem_left_track_17.LATCH_3_.latch data_in mem_left_track_17.LATCH_3_.latch/Q _157_/Y
+ vgnd vpwr scs8hd_lpflow_inputisolatch_1
XFILLER_9_69 vpwr vgnd scs8hd_fill_2
X_188_ _188_/A _188_/Y vgnd vpwr scs8hd_inv_8
XANTENNA__151__B _150_/B vgnd vpwr scs8hd_diode_2
XFILLER_29_3 vgnd vpwr scs8hd_decap_12
XFILLER_20_223 vgnd vpwr scs8hd_decap_3
XFILLER_20_256 vgnd vpwr scs8hd_decap_4
XANTENNA_mux_bottom_track_5.INVTX1_1_.scs8hd_inv_1_A chanx_left_in[4] vgnd vpwr scs8hd_diode_2
XFILLER_18_23 vpwr vgnd scs8hd_fill_2
XFILLER_18_56 vpwr vgnd scs8hd_fill_2
XFILLER_34_44 vgnd vpwr scs8hd_decap_12
XFILLER_18_89 vgnd vpwr scs8hd_fill_1
XANTENNA_mem_right_track_0.LATCH_1_.latch_SLEEPB _107_/Y vgnd vpwr scs8hd_diode_2
XFILLER_7_216 vgnd vpwr scs8hd_decap_12
X_111_ address[6] _161_/A vgnd vpwr scs8hd_buf_1
XANTENNA__162__A _112_/X vgnd vpwr scs8hd_diode_2
XFILLER_37_175 vpwr vgnd scs8hd_fill_2
XFILLER_37_164 vpwr vgnd scs8hd_fill_2
XANTENNA_mux_right_track_8.mux_l2_in_0_.TGATE_1_.scs8hd_ebufn_2_A mux_right_track_8.mux_l1_in_1_.TGATE_0_.scs8hd_ebufn_2/Z
+ vgnd vpwr scs8hd_diode_2
XFILLER_29_99 vpwr vgnd scs8hd_fill_2
XFILLER_28_186 vgnd vpwr scs8hd_fill_1
XFILLER_28_131 vgnd vpwr scs8hd_decap_4
XANTENNA_mem_bottom_track_7.LATCH_0_.latch_SLEEPB _175_/Y vgnd vpwr scs8hd_diode_2
XANTENNA_mem_bottom_track_13.LATCH_1_.latch_D data_in vgnd vpwr scs8hd_diode_2
XFILLER_6_59 vgnd vpwr scs8hd_decap_3
XFILLER_34_167 vgnd vpwr scs8hd_decap_4
XFILLER_34_145 vpwr vgnd scs8hd_fill_2
XFILLER_34_101 vgnd vpwr scs8hd_decap_8
XANTENNA__157__A _157_/A vgnd vpwr scs8hd_diode_2
XFILLER_19_197 vgnd vpwr scs8hd_decap_4
XANTENNA_mem_bottom_track_9.LATCH_0_.latch_D data_in vgnd vpwr scs8hd_diode_2
XFILLER_25_101 vpwr vgnd scs8hd_fill_2
XANTENNA_mux_bottom_track_17.INVTX1_0_.scs8hd_inv_1_A chanx_left_in[0] vgnd vpwr scs8hd_diode_2
XANTENNA_mux_right_track_16.mux_l1_in_2_.TGATE_0_.scs8hd_ebufn_2_A mux_right_track_16.INVTX1_6_.scs8hd_inv_1/Y
+ vgnd vpwr scs8hd_diode_2
XFILLER_25_134 vgnd vpwr scs8hd_fill_1
XFILLER_15_57 vpwr vgnd scs8hd_fill_2
XFILLER_31_89 vgnd vpwr scs8hd_decap_4
XFILLER_31_34 vgnd vpwr scs8hd_decap_4
XFILLER_31_23 vpwr vgnd scs8hd_fill_2
XFILLER_0_233 vgnd vpwr scs8hd_fill_1
XFILLER_16_101 vgnd vpwr scs8hd_decap_3
XFILLER_16_189 vpwr vgnd scs8hd_fill_2
XPHY_195 vgnd vpwr scs8hd_tapvpwrvgnd_1
XPHY_140 vgnd vpwr scs8hd_tapvpwrvgnd_1
XPHY_151 vgnd vpwr scs8hd_tapvpwrvgnd_1
XPHY_162 vgnd vpwr scs8hd_tapvpwrvgnd_1
XPHY_173 vgnd vpwr scs8hd_tapvpwrvgnd_1
XPHY_184 vgnd vpwr scs8hd_tapvpwrvgnd_1
XFILLER_39_259 vpwr vgnd scs8hd_fill_2
XFILLER_39_248 vpwr vgnd scs8hd_fill_2
XFILLER_39_237 vgnd vpwr scs8hd_decap_6
XFILLER_11_3 vgnd vpwr scs8hd_decap_3
XANTENNA_mux_left_track_17.mux_l1_in_0_.TGATE_1_.scs8hd_ebufn_2_TEB mem_left_track_17.LATCH_1_.latch/Q
+ vgnd vpwr scs8hd_diode_2
Xmem_left_track_1.LATCH_1_.latch data_in mem_left_track_1.LATCH_1_.latch/Q _143_/Y
+ vgnd vpwr scs8hd_lpflow_inputisolatch_1
XFILLER_26_23 vgnd vpwr scs8hd_decap_8
XFILLER_13_115 vpwr vgnd scs8hd_fill_2
XFILLER_42_44 vgnd vpwr scs8hd_decap_12
XFILLER_13_137 vgnd vpwr scs8hd_decap_3
XFILLER_3_49 vgnd vpwr scs8hd_fill_1
XFILLER_8_163 vgnd vpwr scs8hd_decap_8
XFILLER_8_174 vgnd vpwr scs8hd_decap_12
XANTENNA__170__A _161_/X vgnd vpwr scs8hd_diode_2
Xmem_right_track_16.LATCH_2_.latch data_in mem_right_track_16.LATCH_2_.latch/Q _132_/Y
+ vgnd vpwr scs8hd_lpflow_inputisolatch_1
XFILLER_10_107 vpwr vgnd scs8hd_fill_2
XFILLER_41_232 vgnd vpwr scs8hd_decap_12
XFILLER_26_273 vpwr vgnd scs8hd_fill_2
XFILLER_5_111 vgnd vpwr scs8hd_decap_4
XANTENNA__149__B _150_/B vgnd vpwr scs8hd_diode_2
XANTENNA_mem_bottom_track_5.LATCH_1_.latch_SLEEPB _172_/Y vgnd vpwr scs8hd_diode_2
XFILLER_17_273 vgnd vpwr scs8hd_decap_4
XFILLER_32_276 vgnd vpwr scs8hd_fill_1
XFILLER_32_254 vgnd vpwr scs8hd_fill_1
XANTENNA__165__A _099_/C vgnd vpwr scs8hd_diode_2
XFILLER_4_81 vpwr vgnd scs8hd_fill_2
XFILLER_23_254 vpwr vgnd scs8hd_fill_2
XFILLER_23_276 vgnd vpwr scs8hd_fill_1
XFILLER_23_57 vpwr vgnd scs8hd_fill_2
XFILLER_23_46 vpwr vgnd scs8hd_fill_2
XFILLER_2_169 vgnd vpwr scs8hd_decap_12
XFILLER_9_15 vpwr vgnd scs8hd_fill_2
XFILLER_14_276 vgnd vpwr scs8hd_fill_1
X_187_ _187_/A _187_/Y vgnd vpwr scs8hd_inv_8
Xmux_right_track_8.mux_l1_in_0_.TGATE_1_.scs8hd_ebufn_2 mux_right_track_8.INVTX1_1_.scs8hd_inv_1/Y
+ mem_right_track_8.LATCH_1_.latch/Q mux_right_track_8.mux_l1_in_0_.TGATE_0_.scs8hd_ebufn_2/Z
+ vgnd vpwr scs8hd_ebufn_2
Xmux_left_track_9.INVTX1_0_.scs8hd_inv_1 chanx_right_in[1] mux_left_track_9.INVTX1_0_.scs8hd_inv_1/Y
+ vgnd vpwr scs8hd_inv_1
XFILLER_20_235 vpwr vgnd scs8hd_fill_2
XANTENNA_mux_right_track_0.mux_l1_in_2_.TGATE_0_.scs8hd_ebufn_2_A mux_right_track_0.INVTX1_6_.scs8hd_inv_1/Y
+ vgnd vpwr scs8hd_diode_2
XFILLER_34_56 vgnd vpwr scs8hd_decap_12
XANTENNA_mux_bottom_track_15.mux_l2_in_0_.TGATE_1_.scs8hd_ebufn_2_TEB _201_/Y vgnd
+ vpwr scs8hd_diode_2
XFILLER_11_213 vgnd vpwr scs8hd_decap_12
X_110_ _097_/A _123_/A _110_/Y vgnd vpwr scs8hd_nor2_4
XFILLER_7_228 vgnd vpwr scs8hd_decap_12
XANTENNA_mux_left_track_17.mux_l1_in_1_.TGATE_0_.scs8hd_ebufn_2_A mux_left_track_17.INVTX1_3_.scs8hd_inv_1/Y
+ vgnd vpwr scs8hd_diode_2
X_239_ _239_/A chany_bottom_out[7] vgnd vpwr scs8hd_buf_2
XFILLER_41_3 vgnd vpwr scs8hd_decap_12
XFILLER_37_187 vpwr vgnd scs8hd_fill_2
XFILLER_29_23 vpwr vgnd scs8hd_fill_2
XFILLER_28_198 vpwr vgnd scs8hd_fill_2
XFILLER_28_165 vgnd vpwr scs8hd_decap_12
XFILLER_6_27 vgnd vpwr scs8hd_decap_4
XFILLER_3_253 vpwr vgnd scs8hd_fill_2
XFILLER_3_220 vgnd vpwr scs8hd_decap_12
XFILLER_34_124 vgnd vpwr scs8hd_fill_1
XANTENNA__157__B _159_/B vgnd vpwr scs8hd_diode_2
XFILLER_19_176 vgnd vpwr scs8hd_fill_1
XANTENNA__173__A _161_/X vgnd vpwr scs8hd_diode_2
XANTENNA_mem_left_track_9.LATCH_1_.latch_SLEEPB _151_/Y vgnd vpwr scs8hd_diode_2
XFILLER_40_116 vgnd vpwr scs8hd_decap_12
XFILLER_40_105 vgnd vpwr scs8hd_decap_8
XFILLER_33_190 vpwr vgnd scs8hd_fill_2
XFILLER_25_179 vpwr vgnd scs8hd_fill_2
XANTENNA__083__A address[2] vgnd vpwr scs8hd_diode_2
XFILLER_15_36 vpwr vgnd scs8hd_fill_2
XFILLER_31_57 vpwr vgnd scs8hd_fill_2
XFILLER_0_256 vgnd vpwr scs8hd_decap_12
XPHY_130 vgnd vpwr scs8hd_tapvpwrvgnd_1
XPHY_141 vgnd vpwr scs8hd_tapvpwrvgnd_1
XPHY_152 vgnd vpwr scs8hd_tapvpwrvgnd_1
XFILLER_16_113 vgnd vpwr scs8hd_decap_8
XANTENNA_mem_left_track_17.LATCH_1_.latch_D data_in vgnd vpwr scs8hd_diode_2
XPHY_196 vgnd vpwr scs8hd_tapvpwrvgnd_1
XANTENNA_mux_bottom_track_1.mux_l2_in_0_.TGATE_1_.scs8hd_ebufn_2_TEB _187_/Y vgnd
+ vpwr scs8hd_diode_2
XPHY_163 vgnd vpwr scs8hd_tapvpwrvgnd_1
XPHY_174 vgnd vpwr scs8hd_tapvpwrvgnd_1
XPHY_185 vgnd vpwr scs8hd_tapvpwrvgnd_1
XFILLER_39_205 vpwr vgnd scs8hd_fill_2
XFILLER_21_90 vpwr vgnd scs8hd_fill_2
XANTENNA__168__A _161_/X vgnd vpwr scs8hd_diode_2
XFILLER_30_171 vgnd vpwr scs8hd_decap_3
XFILLER_22_138 vgnd vpwr scs8hd_decap_4
XFILLER_7_92 vgnd vpwr scs8hd_fill_1
Xmux_left_track_1.mux_l1_in_0_.TGATE_0_.scs8hd_ebufn_2 mux_left_track_1.INVTX1_0_.scs8hd_inv_1/Y
+ mem_left_track_1.LATCH_0_.latch/Q mux_left_track_1.mux_l1_in_0_.TGATE_0_.scs8hd_ebufn_2/Z
+ vgnd vpwr scs8hd_ebufn_2
XANTENNA_mux_left_track_17.INVTX1_0_.scs8hd_inv_1_A chanx_right_in[2] vgnd vpwr scs8hd_diode_2
XFILLER_26_79 vpwr vgnd scs8hd_fill_2
XFILLER_42_56 vgnd vpwr scs8hd_decap_6
XFILLER_9_109 vpwr vgnd scs8hd_fill_2
Xmux_left_track_17.mux_l1_in_1_.TGATE_0_.scs8hd_ebufn_2 mux_left_track_17.INVTX1_3_.scs8hd_inv_1/Y
+ mem_left_track_17.LATCH_0_.latch/Q mux_left_track_17.mux_l1_in_1_.TGATE_2_.scs8hd_ebufn_2/Z
+ vgnd vpwr scs8hd_ebufn_2
XFILLER_36_208 vgnd vpwr scs8hd_decap_6
XFILLER_8_186 vgnd vpwr scs8hd_decap_12
XANTENNA__170__B _174_/B vgnd vpwr scs8hd_diode_2
XANTENNA_mux_left_track_17.mux_l1_in_1_.TGATE_0_.scs8hd_ebufn_2_TEB mem_left_track_17.LATCH_0_.latch/Q
+ vgnd vpwr scs8hd_diode_2
XFILLER_35_263 vgnd vpwr scs8hd_decap_12
XANTENNA_mux_right_track_8.mux_l1_in_1_.TGATE_1_.scs8hd_ebufn_2_A mux_right_track_8.INVTX1_4_.scs8hd_inv_1/Y
+ vgnd vpwr scs8hd_diode_2
XFILLER_27_219 vpwr vgnd scs8hd_fill_2
XANTENNA_mux_bottom_track_17.mux_l2_in_0_.TGATE_0_.scs8hd_ebufn_2_TEB _203_/A vgnd
+ vpwr scs8hd_diode_2
XFILLER_5_9 vgnd vpwr scs8hd_fill_1
Xmux_right_track_8.INVTX1_1_.scs8hd_inv_1 right_top_grid_pin_9_ mux_right_track_8.INVTX1_1_.scs8hd_inv_1/Y
+ vgnd vpwr scs8hd_inv_1
XFILLER_26_241 vgnd vpwr scs8hd_decap_12
Xmem_right_track_0.LATCH_1_.latch data_in mem_right_track_0.LATCH_1_.latch/Q _107_/Y
+ vgnd vpwr scs8hd_lpflow_inputisolatch_1
Xmux_right_track_16.mux_l1_in_0_.TGATE_1_.scs8hd_ebufn_2 mux_right_track_16.INVTX1_1_.scs8hd_inv_1/Y
+ mem_right_track_16.LATCH_1_.latch/Q mux_right_track_16.mux_l1_in_0_.TGATE_2_.scs8hd_ebufn_2/Z
+ vgnd vpwr scs8hd_ebufn_2
XFILLER_5_156 vpwr vgnd scs8hd_fill_2
XFILLER_5_123 vgnd vpwr scs8hd_decap_3
XANTENNA_mux_right_track_8.mux_l1_in_2_.TGATE_2_.scs8hd_ebufn_2_TEB mem_right_track_8.LATCH_2_.latch/Q
+ vgnd vpwr scs8hd_diode_2
XFILLER_32_222 vpwr vgnd scs8hd_fill_2
XFILLER_32_200 vpwr vgnd scs8hd_fill_2
XANTENNA_mux_right_track_0.mux_l1_in_1_.TGATE_2_.scs8hd_ebufn_2_TEB mem_right_track_0.LATCH_2_.latch/Q
+ vgnd vpwr scs8hd_diode_2
XANTENNA__181__A _181_/A vgnd vpwr scs8hd_diode_2
XFILLER_23_211 vpwr vgnd scs8hd_fill_2
XANTENNA__091__A address[6] vgnd vpwr scs8hd_diode_2
XFILLER_14_211 vgnd vpwr scs8hd_decap_3
X_186_ _145_/A _112_/X _177_/C _102_/C _186_/Y vgnd vpwr scs8hd_nor4_4
XANTENNA__176__A _161_/A vgnd vpwr scs8hd_diode_2
XFILLER_20_203 vgnd vpwr scs8hd_fill_1
Xmux_left_track_1.INVTX1_3_.scs8hd_inv_1 chany_bottom_in[5] mux_left_track_1.INVTX1_3_.scs8hd_inv_1/Y
+ vgnd vpwr scs8hd_inv_1
XFILLER_34_68 vgnd vpwr scs8hd_decap_8
XANTENNA__086__A address[1] vgnd vpwr scs8hd_diode_2
XFILLER_11_225 vgnd vpwr scs8hd_decap_4
XFILLER_1_3 vpwr vgnd scs8hd_fill_2