* NGSPICE file created from sb_1__0_.ext - technology: EFS8A

* Black-box entry subcircuit for scs8hd_decap_12 abstract view
.subckt scs8hd_decap_12 vgnd vpwr
.ends

* Black-box entry subcircuit for scs8hd_diode_2 abstract view
.subckt scs8hd_diode_2 DIODE vgnd vpwr
.ends

* Black-box entry subcircuit for scs8hd_fill_2 abstract view
.subckt scs8hd_fill_2 vpwr vgnd
.ends

* Black-box entry subcircuit for scs8hd_decap_4 abstract view
.subckt scs8hd_decap_4 vgnd vpwr
.ends

* Black-box entry subcircuit for scs8hd_inv_1 abstract view
.subckt scs8hd_inv_1 A Y vgnd vpwr
.ends

* Black-box entry subcircuit for scs8hd_fill_1 abstract view
.subckt scs8hd_fill_1 vgnd vpwr
.ends

* Black-box entry subcircuit for scs8hd_decap_8 abstract view
.subckt scs8hd_decap_8 vgnd vpwr
.ends

* Black-box entry subcircuit for scs8hd_ebufn_2 abstract view
.subckt scs8hd_ebufn_2 A TEB Z vgnd vpwr
.ends

* Black-box entry subcircuit for scs8hd_or3_4 abstract view
.subckt scs8hd_or3_4 A B C X vgnd vpwr
.ends

* Black-box entry subcircuit for scs8hd_conb_1 abstract view
.subckt scs8hd_conb_1 HI LO vgnd vpwr
.ends

* Black-box entry subcircuit for scs8hd_inv_8 abstract view
.subckt scs8hd_inv_8 A Y vgnd vpwr
.ends

* Black-box entry subcircuit for scs8hd_nor4_4 abstract view
.subckt scs8hd_nor4_4 A B C D Y vgnd vpwr
.ends

* Black-box entry subcircuit for scs8hd_decap_3 abstract view
.subckt scs8hd_decap_3 vgnd vpwr
.ends

* Black-box entry subcircuit for scs8hd_lpflow_inputisolatch_1 abstract view
.subckt scs8hd_lpflow_inputisolatch_1 D Q SLEEPB vgnd vpwr
.ends

* Black-box entry subcircuit for scs8hd_decap_6 abstract view
.subckt scs8hd_decap_6 vgnd vpwr
.ends

* Black-box entry subcircuit for scs8hd_tapvpwrvgnd_1 abstract view
.subckt scs8hd_tapvpwrvgnd_1 vgnd vpwr
.ends

* Black-box entry subcircuit for scs8hd_nor2_4 abstract view
.subckt scs8hd_nor2_4 A B Y vgnd vpwr
.ends

* Black-box entry subcircuit for scs8hd_or4_4 abstract view
.subckt scs8hd_or4_4 A B C D X vgnd vpwr
.ends

* Black-box entry subcircuit for scs8hd_buf_2 abstract view
.subckt scs8hd_buf_2 A X vgnd vpwr
.ends

* Black-box entry subcircuit for scs8hd_nand3_4 abstract view
.subckt scs8hd_nand3_4 A B C Y vgnd vpwr
.ends

* Black-box entry subcircuit for scs8hd_or2_4 abstract view
.subckt scs8hd_or2_4 A B X vgnd vpwr
.ends

.subckt sb_1__0_ address[0] address[1] address[2] address[3] address[4] address[5]
+ address[6] chanx_left_in[0] chanx_left_in[1] chanx_left_in[2] chanx_left_in[3] chanx_left_in[4]
+ chanx_left_in[5] chanx_left_in[6] chanx_left_in[7] chanx_left_in[8] chanx_left_out[0]
+ chanx_left_out[1] chanx_left_out[2] chanx_left_out[3] chanx_left_out[4] chanx_left_out[5]
+ chanx_left_out[6] chanx_left_out[7] chanx_left_out[8] chanx_right_in[0] chanx_right_in[1]
+ chanx_right_in[2] chanx_right_in[3] chanx_right_in[4] chanx_right_in[5] chanx_right_in[6]
+ chanx_right_in[7] chanx_right_in[8] chanx_right_out[0] chanx_right_out[1] chanx_right_out[2]
+ chanx_right_out[3] chanx_right_out[4] chanx_right_out[5] chanx_right_out[6] chanx_right_out[7]
+ chanx_right_out[8] chany_top_in[0] chany_top_in[1] chany_top_in[2] chany_top_in[3]
+ chany_top_in[4] chany_top_in[5] chany_top_in[6] chany_top_in[7] chany_top_in[8]
+ chany_top_out[0] chany_top_out[1] chany_top_out[2] chany_top_out[3] chany_top_out[4]
+ chany_top_out[5] chany_top_out[6] chany_top_out[7] chany_top_out[8] data_in enable
+ left_bottom_grid_pin_11_ left_bottom_grid_pin_13_ left_bottom_grid_pin_15_ left_bottom_grid_pin_1_
+ left_bottom_grid_pin_3_ left_bottom_grid_pin_5_ left_bottom_grid_pin_7_ left_bottom_grid_pin_9_
+ left_top_grid_pin_10_ right_bottom_grid_pin_11_ right_bottom_grid_pin_13_ right_bottom_grid_pin_15_
+ right_bottom_grid_pin_1_ right_bottom_grid_pin_3_ right_bottom_grid_pin_5_ right_bottom_grid_pin_7_
+ right_bottom_grid_pin_9_ right_top_grid_pin_10_ top_left_grid_pin_13_ top_right_grid_pin_11_
+ vpwr vgnd
XFILLER_22_199 vgnd vpwr scs8hd_decap_12
XANTENNA_mem_top_track_2.LATCH_1_.latch_SLEEPB _112_/Y vgnd vpwr scs8hd_diode_2
XFILLER_26_41 vpwr vgnd scs8hd_fill_2
XFILLER_9_159 vpwr vgnd scs8hd_fill_2
XFILLER_13_188 vgnd vpwr scs8hd_decap_4
XANTENNA_mem_top_track_0.LATCH_3_.latch_D data_in vgnd vpwr scs8hd_diode_2
XFILLER_3_12 vpwr vgnd scs8hd_fill_2
XANTENNA__113__B _112_/B vgnd vpwr scs8hd_diode_2
Xmux_top_track_8.INVTX1_0_.scs8hd_inv_1 chanx_right_in[6] mux_top_track_8.INVTX1_0_.scs8hd_inv_1/Y
+ vgnd vpwr scs8hd_inv_1
XFILLER_27_214 vgnd vpwr scs8hd_fill_1
XANTENNA_mux_left_track_9.mux_l2_in_0_.TGATE_1_.scs8hd_ebufn_2_A mux_left_track_9.mux_l1_in_1_.TGATE_2_.scs8hd_ebufn_2/Z
+ vgnd vpwr scs8hd_diode_2
XFILLER_6_107 vpwr vgnd scs8hd_fill_2
XFILLER_10_125 vpwr vgnd scs8hd_fill_2
XFILLER_12_32 vpwr vgnd scs8hd_fill_2
XANTENNA_mem_top_track_16.LATCH_0_.latch_SLEEPB _124_/Y vgnd vpwr scs8hd_diode_2
XFILLER_33_206 vgnd vpwr scs8hd_decap_8
XANTENNA__108__B _105_/X vgnd vpwr scs8hd_diode_2
XANTENNA__124__A _074_/A vgnd vpwr scs8hd_diode_2
XFILLER_5_173 vpwr vgnd scs8hd_fill_2
XANTENNA_mux_right_track_16.mux_l1_in_1_.TGATE_2_.scs8hd_ebufn_2_TEB mem_right_track_16.LATCH_2_.latch/Q
+ vgnd vpwr scs8hd_diode_2
XFILLER_5_184 vgnd vpwr scs8hd_decap_4
Xmux_left_track_1.mux_l2_in_0_.TGATE_0_.scs8hd_ebufn_2 mux_left_track_1.mux_l1_in_0_.TGATE_1_.scs8hd_ebufn_2/Z
+ mem_left_track_1.LATCH_3_.latch/Q mux_left_track_1.tap_buf4_0_.scs8hd_inv_1/A vgnd
+ vpwr scs8hd_ebufn_2
XANTENNA_mem_right_track_16.LATCH_4_.latch_D data_in vgnd vpwr scs8hd_diode_2
XFILLER_15_206 vgnd vpwr scs8hd_decap_8
XFILLER_15_217 vgnd vpwr scs8hd_decap_12
XFILLER_23_20 vpwr vgnd scs8hd_fill_2
X_062_ _047_/Y address[2] address[0] _079_/A vgnd vpwr scs8hd_or3_4
X_131_ _131_/HI _131_/LO vgnd vpwr scs8hd_conb_1
XFILLER_23_31 vpwr vgnd scs8hd_fill_2
XFILLER_2_198 vgnd vpwr scs8hd_decap_4
XFILLER_2_165 vpwr vgnd scs8hd_fill_2
XFILLER_0_79 vgnd vpwr scs8hd_decap_8
XANTENNA__119__A _069_/A vgnd vpwr scs8hd_diode_2
XFILLER_9_66 vpwr vgnd scs8hd_fill_2
XFILLER_12_209 vgnd vpwr scs8hd_decap_4
XFILLER_20_231 vpwr vgnd scs8hd_fill_2
XANTENNA_mem_top_track_16.LATCH_1_.latch_D data_in vgnd vpwr scs8hd_diode_2
XFILLER_18_64 vpwr vgnd scs8hd_fill_2
X_045_ _045_/A _045_/Y vgnd vpwr scs8hd_inv_8
XANTENNA_mem_top_track_0.LATCH_2_.latch_SLEEPB _109_/Y vgnd vpwr scs8hd_diode_2
XANTENNA__105__C address[6] vgnd vpwr scs8hd_diode_2
X_114_ _068_/A address[3] _112_/C _112_/D _114_/Y vgnd vpwr scs8hd_nor4_4
Xmux_right_track_16.mux_l2_in_0_.TGATE_1_.scs8hd_ebufn_2 mux_right_track_16.mux_l1_in_1_.TGATE_1_.scs8hd_ebufn_2/Z
+ mem_right_track_16.LATCH_4_.latch/Q mux_right_track_16.tap_buf4_0_.scs8hd_inv_1/A
+ vgnd vpwr scs8hd_ebufn_2
XANTENNA__121__B _119_/B vgnd vpwr scs8hd_diode_2
Xmux_left_track_9.INVTX1_3_.scs8hd_inv_1 chanx_right_in[1] mux_left_track_9.INVTX1_3_.scs8hd_inv_1/Y
+ vgnd vpwr scs8hd_inv_1
Xmux_top_track_0.mux_l2_in_0_.TGATE_1_.scs8hd_ebufn_2 mux_top_track_0.mux_l1_in_1_.TGATE_0_.scs8hd_ebufn_2/Z
+ mem_top_track_0.LATCH_4_.latch/Q mux_top_track_0.tap_buf4_0_.scs8hd_inv_1/A vgnd
+ vpwr scs8hd_ebufn_2
Xmux_right_track_8.mux_l1_in_1_.TGATE_2_.scs8hd_ebufn_2 mux_right_track_8.INVTX1_5_.scs8hd_inv_1/Y
+ mem_right_track_8.LATCH_2_.latch/Q mux_right_track_8.mux_l1_in_1_.TGATE_2_.scs8hd_ebufn_2/Z
+ vgnd vpwr scs8hd_ebufn_2
XANTENNA_mux_right_track_16.mux_l2_in_0_.TGATE_2_.scs8hd_ebufn_2_A mux_right_track_16.mux_l1_in_2_.TGATE_0_.scs8hd_ebufn_2/Z
+ vgnd vpwr scs8hd_diode_2
XFILLER_20_32 vgnd vpwr scs8hd_fill_1
XFILLER_20_87 vgnd vpwr scs8hd_decap_4
XFILLER_6_23 vpwr vgnd scs8hd_fill_2
XANTENNA__116__B _112_/B vgnd vpwr scs8hd_diode_2
XANTENNA_mux_right_track_16.INVTX1_7_.scs8hd_inv_1_A chanx_left_in[6] vgnd vpwr scs8hd_diode_2
XANTENNA_mem_top_track_14.LATCH_1_.latch_SLEEPB _116_/Y vgnd vpwr scs8hd_diode_2
XFILLER_13_3 vgnd vpwr scs8hd_decap_3
XFILLER_19_172 vpwr vgnd scs8hd_fill_2
Xmem_right_track_8.LATCH_1_.latch data_in mem_right_track_8.LATCH_1_.latch/Q _073_/Y
+ vgnd vpwr scs8hd_lpflow_inputisolatch_1
XANTENNA_mux_top_track_0.mux_l2_in_0_.TGATE_2_.scs8hd_ebufn_2_A _131_/HI vgnd vpwr
+ scs8hd_diode_2
XFILLER_1_219 vgnd vpwr scs8hd_decap_12
XANTENNA__042__A _042_/A vgnd vpwr scs8hd_diode_2
XFILLER_17_109 vgnd vpwr scs8hd_decap_6
XFILLER_25_197 vgnd vpwr scs8hd_decap_8
XFILLER_15_54 vgnd vpwr scs8hd_fill_1
XFILLER_15_65 vpwr vgnd scs8hd_fill_2
XFILLER_31_75 vgnd vpwr scs8hd_decap_4
XFILLER_31_156 vgnd vpwr scs8hd_fill_1
XFILLER_31_123 vgnd vpwr scs8hd_fill_1
XPHY_170 vgnd vpwr scs8hd_tapvpwrvgnd_1
XANTENNA_mem_left_track_9.LATCH_4_.latch_SLEEPB _092_/Y vgnd vpwr scs8hd_diode_2
XPHY_192 vgnd vpwr scs8hd_tapvpwrvgnd_1
XPHY_181 vgnd vpwr scs8hd_tapvpwrvgnd_1
XANTENNA_mux_left_track_1.mux_l1_in_2_.TGATE_0_.scs8hd_ebufn_2_A mux_left_track_1.INVTX1_6_.scs8hd_inv_1/Y
+ vgnd vpwr scs8hd_diode_2
XFILLER_22_134 vpwr vgnd scs8hd_fill_2
XFILLER_22_145 vpwr vgnd scs8hd_fill_2
XFILLER_26_75 vpwr vgnd scs8hd_fill_2
XFILLER_13_112 vpwr vgnd scs8hd_fill_2
XFILLER_13_123 vpwr vgnd scs8hd_fill_2
XFILLER_13_167 vpwr vgnd scs8hd_fill_2
XFILLER_9_138 vpwr vgnd scs8hd_fill_2
XFILLER_3_57 vpwr vgnd scs8hd_fill_2
XANTENNA__113__C _112_/C vgnd vpwr scs8hd_diode_2
Xmux_left_track_9.mux_l2_in_0_.TGATE_2_.scs8hd_ebufn_2 mux_left_track_9.mux_l1_in_2_.TGATE_2_.scs8hd_ebufn_2/Z
+ mem_left_track_9.LATCH_5_.latch/Q mux_left_track_9.tap_buf4_0_.scs8hd_inv_1/A vgnd
+ vpwr scs8hd_ebufn_2
Xmux_top_track_0.INVTX1_3_.scs8hd_inv_1 chanx_left_in[0] mux_top_track_0.INVTX1_3_.scs8hd_inv_1/Y
+ vgnd vpwr scs8hd_inv_1
XANTENNA_mux_right_track_0.INVTX1_4_.scs8hd_inv_1_A right_bottom_grid_pin_5_ vgnd
+ vpwr scs8hd_diode_2
Xmux_left_track_1.mux_l1_in_1_.TGATE_1_.scs8hd_ebufn_2 mux_left_track_1.INVTX1_4_.scs8hd_inv_1/Y
+ mem_left_track_1.LATCH_1_.latch/Q mux_left_track_1.mux_l1_in_1_.TGATE_0_.scs8hd_ebufn_2/Z
+ vgnd vpwr scs8hd_ebufn_2
XFILLER_12_88 vpwr vgnd scs8hd_fill_2
XFILLER_33_218 vpwr vgnd scs8hd_fill_2
Xmux_left_track_17.mux_l1_in_2_.TGATE_1_.scs8hd_ebufn_2 mux_left_track_17.INVTX1_7_.scs8hd_inv_1/Y
+ mem_left_track_17.LATCH_1_.latch/Q mux_left_track_17.mux_l1_in_2_.TGATE_1_.scs8hd_ebufn_2/Z
+ vgnd vpwr scs8hd_ebufn_2
XANTENNA_mux_left_track_17.mux_l2_in_0_.TGATE_0_.scs8hd_ebufn_2_TEB mem_left_track_17.LATCH_3_.latch/Q
+ vgnd vpwr scs8hd_diode_2
XANTENNA__124__B _119_/B vgnd vpwr scs8hd_diode_2
XANTENNA__140__A _140_/A vgnd vpwr scs8hd_diode_2
XANTENNA_mux_top_track_0.INVTX1_0_.scs8hd_inv_1_A top_left_grid_pin_13_ vgnd vpwr
+ scs8hd_diode_2
Xmux_right_track_8.INVTX1_4_.scs8hd_inv_1 right_bottom_grid_pin_7_ mux_right_track_8.INVTX1_4_.scs8hd_inv_1/Y
+ vgnd vpwr scs8hd_inv_1
XANTENNA_mux_right_track_8.INVTX1_6_.scs8hd_inv_1_A chanx_left_in[1] vgnd vpwr scs8hd_diode_2
XANTENNA__050__A enable vgnd vpwr scs8hd_diode_2
XANTENNA_mux_left_track_9.INVTX1_0_.scs8hd_inv_1_A chany_top_in[2] vgnd vpwr scs8hd_diode_2
XANTENNA_mux_right_track_0.mux_l2_in_0_.TGATE_2_.scs8hd_ebufn_2_A mux_right_track_0.mux_l1_in_2_.TGATE_1_.scs8hd_ebufn_2/Z
+ vgnd vpwr scs8hd_diode_2
X_130_ _130_/HI _130_/LO vgnd vpwr scs8hd_conb_1
XANTENNA_mux_right_track_0.mux_l2_in_0_.TGATE_2_.scs8hd_ebufn_2_TEB mem_right_track_0.LATCH_5_.latch/Q
+ vgnd vpwr scs8hd_diode_2
XFILLER_15_229 vgnd vpwr scs8hd_decap_4
X_061_ _063_/A _071_/A _061_/Y vgnd vpwr scs8hd_nor2_4
XANTENNA_mem_right_track_0.LATCH_4_.latch_D data_in vgnd vpwr scs8hd_diode_2
Xmux_right_track_16.mux_l1_in_1_.TGATE_2_.scs8hd_ebufn_2 mux_right_track_16.INVTX1_5_.scs8hd_inv_1/Y
+ mem_right_track_16.LATCH_2_.latch/Q mux_right_track_16.mux_l1_in_1_.TGATE_1_.scs8hd_ebufn_2/Z
+ vgnd vpwr scs8hd_ebufn_2
XFILLER_2_177 vpwr vgnd scs8hd_fill_2
XANTENNA_mux_right_track_16.mux_l1_in_2_.TGATE_1_.scs8hd_ebufn_2_TEB mem_right_track_16.LATCH_1_.latch/Q
+ vgnd vpwr scs8hd_diode_2
XFILLER_0_58 vpwr vgnd scs8hd_fill_2
XFILLER_9_12 vpwr vgnd scs8hd_fill_2
XANTENNA__119__B _119_/B vgnd vpwr scs8hd_diode_2
XANTENNA__045__A _045_/A vgnd vpwr scs8hd_diode_2
XFILLER_18_32 vpwr vgnd scs8hd_fill_2
X_113_ address[4] _112_/B _112_/C address[0] _113_/Y vgnd vpwr scs8hd_nor4_4
XANTENNA__105__D _083_/D vgnd vpwr scs8hd_diode_2
X_044_ _044_/A _044_/Y vgnd vpwr scs8hd_inv_8
XANTENNA_mem_left_track_1.LATCH_0_.latch_SLEEPB _089_/Y vgnd vpwr scs8hd_diode_2
XFILLER_15_7 vpwr vgnd scs8hd_fill_2
Xmux_left_track_1.INVTX1_6_.scs8hd_inv_1 left_bottom_grid_pin_5_ mux_left_track_1.INVTX1_6_.scs8hd_inv_1/Y
+ vgnd vpwr scs8hd_inv_1
XANTENNA_mux_left_track_9.mux_l1_in_1_.TGATE_1_.scs8hd_ebufn_2_A mux_left_track_9.INVTX1_4_.scs8hd_inv_1/Y
+ vgnd vpwr scs8hd_diode_2
XFILLER_29_118 vpwr vgnd scs8hd_fill_2
XFILLER_20_11 vpwr vgnd scs8hd_fill_2
XFILLER_29_97 vpwr vgnd scs8hd_fill_2
XFILLER_28_195 vgnd vpwr scs8hd_decap_12
XFILLER_28_184 vpwr vgnd scs8hd_fill_2
XFILLER_28_151 vpwr vgnd scs8hd_fill_2
XFILLER_6_46 vpwr vgnd scs8hd_fill_2
XANTENNA__116__C _112_/C vgnd vpwr scs8hd_diode_2
XANTENNA_mem_right_track_16.LATCH_0_.latch_SLEEPB _081_/Y vgnd vpwr scs8hd_diode_2
XFILLER_19_151 vgnd vpwr scs8hd_decap_3
XFILLER_19_195 vpwr vgnd scs8hd_fill_2
XFILLER_34_154 vgnd vpwr scs8hd_decap_12
XANTENNA_mux_top_track_16.mux_l1_in_0_.TGATE_1_.scs8hd_ebufn_2_TEB mem_top_track_16.LATCH_1_.latch/Q
+ vgnd vpwr scs8hd_diode_2
XANTENNA_mux_top_track_0.mux_l1_in_0_.TGATE_2_.scs8hd_ebufn_2_TEB mem_top_track_0.LATCH_2_.latch/Q
+ vgnd vpwr scs8hd_diode_2
XANTENNA_mux_left_track_1.mux_l1_in_2_.TGATE_2_.scs8hd_ebufn_2_TEB mem_left_track_1.LATCH_2_.latch/Q
+ vgnd vpwr scs8hd_diode_2
XFILLER_25_132 vpwr vgnd scs8hd_fill_2
XFILLER_15_11 vpwr vgnd scs8hd_fill_2
XFILLER_15_22 vpwr vgnd scs8hd_fill_2
XFILLER_15_44 vpwr vgnd scs8hd_fill_2
XFILLER_15_99 vpwr vgnd scs8hd_fill_2
XPHY_193 vgnd vpwr scs8hd_tapvpwrvgnd_1
XFILLER_31_168 vgnd vpwr scs8hd_decap_3
XFILLER_31_135 vpwr vgnd scs8hd_fill_2
XPHY_182 vgnd vpwr scs8hd_tapvpwrvgnd_1
XPHY_171 vgnd vpwr scs8hd_tapvpwrvgnd_1
XPHY_160 vgnd vpwr scs8hd_tapvpwrvgnd_1
XFILLER_16_198 vgnd vpwr scs8hd_decap_12
Xmux_right_track_16.INVTX1_0_.scs8hd_inv_1 chany_top_in[1] mux_right_track_16.INVTX1_0_.scs8hd_inv_1/Y
+ vgnd vpwr scs8hd_inv_1
Xmux_left_track_17.INVTX1_1_.scs8hd_inv_1 chany_top_in[4] mux_left_track_17.INVTX1_1_.scs8hd_inv_1/Y
+ vgnd vpwr scs8hd_inv_1
XANTENNA__143__A chanx_right_in[0] vgnd vpwr scs8hd_diode_2
XFILLER_22_102 vgnd vpwr scs8hd_decap_3
XFILLER_22_113 vgnd vpwr scs8hd_decap_8
XANTENNA__053__A address[3] vgnd vpwr scs8hd_diode_2
Xmux_top_track_2.mux_l1_in_0_.TGATE_1_.scs8hd_ebufn_2 mux_top_track_2.INVTX1_1_.scs8hd_inv_1/Y
+ _042_/Y mux_top_track_2.mux_l1_in_0_.TGATE_1_.scs8hd_ebufn_2/Z vgnd vpwr scs8hd_ebufn_2
XFILLER_26_87 vgnd vpwr scs8hd_decap_4
XANTENNA_mem_left_track_1.LATCH_0_.latch_D data_in vgnd vpwr scs8hd_diode_2
XFILLER_3_36 vpwr vgnd scs8hd_fill_2
XANTENNA__113__D address[0] vgnd vpwr scs8hd_diode_2
XANTENNA_mux_right_track_16.mux_l1_in_1_.TGATE_2_.scs8hd_ebufn_2_A mux_right_track_16.INVTX1_5_.scs8hd_inv_1/Y
+ vgnd vpwr scs8hd_diode_2
XANTENNA__138__A chanx_right_in[5] vgnd vpwr scs8hd_diode_2
XFILLER_8_161 vpwr vgnd scs8hd_fill_2
XFILLER_8_172 vgnd vpwr scs8hd_decap_12
XANTENNA__048__A address[2] vgnd vpwr scs8hd_diode_2
XFILLER_12_23 vpwr vgnd scs8hd_fill_2
XANTENNA_mux_left_track_9.mux_l1_in_0_.TGATE_0_.scs8hd_ebufn_2_TEB mem_left_track_9.LATCH_0_.latch/Q
+ vgnd vpwr scs8hd_diode_2
XFILLER_5_153 vpwr vgnd scs8hd_fill_2
XFILLER_32_230 vgnd vpwr scs8hd_decap_3
XFILLER_24_219 vgnd vpwr scs8hd_decap_12
Xmux_right_track_0.INVTX1_7_.scs8hd_inv_1 chanx_left_in[4] mux_right_track_0.INVTX1_7_.scs8hd_inv_1/Y
+ vgnd vpwr scs8hd_inv_1
XFILLER_23_99 vgnd vpwr scs8hd_fill_1
X_060_ _047_/Y address[2] _112_/D _071_/A vgnd vpwr scs8hd_or3_4
XFILLER_2_112 vpwr vgnd scs8hd_fill_2
XFILLER_9_24 vgnd vpwr scs8hd_decap_3
XFILLER_9_46 vpwr vgnd scs8hd_fill_2
XFILLER_9_57 vpwr vgnd scs8hd_fill_2
XFILLER_9_79 vpwr vgnd scs8hd_fill_2
XANTENNA__151__A chanx_left_in[1] vgnd vpwr scs8hd_diode_2
XANTENNA_mux_top_track_2.mux_l1_in_0_.TGATE_1_.scs8hd_ebufn_2_TEB _042_/Y vgnd vpwr
+ scs8hd_diode_2
XANTENNA_mux_right_track_16.INVTX1_2_.scs8hd_inv_1_A chany_top_in[7] vgnd vpwr scs8hd_diode_2
XANTENNA__061__A _063_/A vgnd vpwr scs8hd_diode_2
XFILLER_18_22 vgnd vpwr scs8hd_decap_8
XFILLER_34_32 vgnd vpwr scs8hd_decap_12
XANTENNA_mux_top_track_16.mux_l2_in_0_.TGATE_2_.scs8hd_ebufn_2_A _133_/HI vgnd vpwr
+ scs8hd_diode_2
XFILLER_7_204 vpwr vgnd scs8hd_fill_2
XFILLER_7_215 vpwr vgnd scs8hd_fill_2
X_112_ address[4] _112_/B _112_/C _112_/D _112_/Y vgnd vpwr scs8hd_nor4_4
X_043_ _043_/A _043_/Y vgnd vpwr scs8hd_inv_8
XANTENNA__146__A chanx_left_in[6] vgnd vpwr scs8hd_diode_2
XFILLER_1_80 vpwr vgnd scs8hd_fill_2
XANTENNA__056__A address[4] vgnd vpwr scs8hd_diode_2
XFILLER_4_218 vgnd vpwr scs8hd_decap_12
XFILLER_20_56 vgnd vpwr scs8hd_fill_1
XFILLER_29_76 vpwr vgnd scs8hd_fill_2
XFILLER_29_54 vgnd vpwr scs8hd_fill_1
XFILLER_6_69 vpwr vgnd scs8hd_fill_2
XANTENNA__116__D _112_/D vgnd vpwr scs8hd_diode_2
XFILLER_34_166 vgnd vpwr scs8hd_decap_12
XANTENNA_mux_right_track_0.mux_l1_in_1_.TGATE_2_.scs8hd_ebufn_2_A mux_right_track_0.INVTX1_5_.scs8hd_inv_1/Y
+ vgnd vpwr scs8hd_diode_2
XANTENNA_mux_left_track_17.mux_l1_in_0_.TGATE_2_.scs8hd_ebufn_2_A mux_left_track_17.INVTX1_2_.scs8hd_inv_1/Y
+ vgnd vpwr scs8hd_diode_2
XFILLER_25_111 vgnd vpwr scs8hd_decap_4
XFILLER_15_34 vgnd vpwr scs8hd_fill_1
XFILLER_0_232 vgnd vpwr scs8hd_fill_1
Xmux_right_track_0.mux_l1_in_2_.TGATE_2_.scs8hd_ebufn_2 _128_/HI mem_right_track_0.LATCH_2_.latch/Q
+ mux_right_track_0.mux_l1_in_2_.TGATE_1_.scs8hd_ebufn_2/Z vgnd vpwr scs8hd_ebufn_2
XPHY_194 vgnd vpwr scs8hd_tapvpwrvgnd_1
XPHY_183 vgnd vpwr scs8hd_tapvpwrvgnd_1
XPHY_172 vgnd vpwr scs8hd_tapvpwrvgnd_1
XPHY_161 vgnd vpwr scs8hd_tapvpwrvgnd_1
XANTENNA_mem_right_track_8.LATCH_5_.latch_SLEEPB _069_/Y vgnd vpwr scs8hd_diode_2
XANTENNA_mem_left_track_9.LATCH_4_.latch_D data_in vgnd vpwr scs8hd_diode_2
XFILLER_16_188 vgnd vpwr scs8hd_fill_1
XPHY_150 vgnd vpwr scs8hd_tapvpwrvgnd_1
XANTENNA_mux_top_track_0.mux_l1_in_1_.TGATE_1_.scs8hd_ebufn_2_TEB mem_top_track_0.LATCH_1_.latch/Q
+ vgnd vpwr scs8hd_diode_2
XFILLER_30_180 vgnd vpwr scs8hd_decap_4
XFILLER_26_22 vgnd vpwr scs8hd_decap_6
XFILLER_9_107 vpwr vgnd scs8hd_fill_2
XFILLER_9_118 vpwr vgnd scs8hd_fill_2
XFILLER_13_147 vgnd vpwr scs8hd_decap_4
XANTENNA_mux_right_track_8.INVTX1_1_.scs8hd_inv_1_A chany_top_in[3] vgnd vpwr scs8hd_diode_2
XANTENNA__154__A _154_/A vgnd vpwr scs8hd_diode_2
XFILLER_8_140 vgnd vpwr scs8hd_decap_6
XFILLER_8_184 vpwr vgnd scs8hd_fill_2
XFILLER_12_191 vgnd vpwr scs8hd_decap_4
XANTENNA_mux_left_track_17.mux_l2_in_0_.TGATE_0_.scs8hd_ebufn_2_A mux_left_track_17.mux_l1_in_0_.TGATE_1_.scs8hd_ebufn_2/Z
+ vgnd vpwr scs8hd_diode_2
XFILLER_27_206 vgnd vpwr scs8hd_decap_8
XANTENNA__064__A address[1] vgnd vpwr scs8hd_diode_2
XANTENNA_mux_top_track_8.mux_l2_in_0_.TGATE_1_.scs8hd_ebufn_2_A _135_/HI vgnd vpwr
+ scs8hd_diode_2
Xmem_top_track_0.LATCH_0_.latch data_in mem_top_track_0.LATCH_0_.latch/Q _111_/Y vgnd
+ vpwr scs8hd_lpflow_inputisolatch_1
XANTENNA_mux_left_track_17.INVTX1_5_.scs8hd_inv_1_A left_bottom_grid_pin_3_ vgnd vpwr
+ scs8hd_diode_2
XANTENNA__149__A _149_/A vgnd vpwr scs8hd_diode_2
XFILLER_4_91 vgnd vpwr scs8hd_fill_1
XFILLER_23_231 vpwr vgnd scs8hd_fill_2
XANTENNA__059__A _063_/A vgnd vpwr scs8hd_diode_2
XFILLER_0_27 vpwr vgnd scs8hd_fill_2
XFILLER_0_49 vpwr vgnd scs8hd_fill_2
XFILLER_14_231 vpwr vgnd scs8hd_fill_2
Xmem_left_track_17.LATCH_3_.latch data_in mem_left_track_17.LATCH_3_.latch/Q _100_/Y
+ vgnd vpwr scs8hd_lpflow_inputisolatch_1
XANTENNA__061__B _071_/A vgnd vpwr scs8hd_diode_2
XFILLER_34_44 vgnd vpwr scs8hd_decap_12
XFILLER_11_212 vgnd vpwr scs8hd_decap_3
XFILLER_34_99 vgnd vpwr scs8hd_fill_1
X_111_ _074_/A _105_/X _111_/Y vgnd vpwr scs8hd_nor2_4
XANTENNA_mem_right_track_0.LATCH_1_.latch_SLEEPB _065_/Y vgnd vpwr scs8hd_diode_2
X_042_ _042_/A _042_/Y vgnd vpwr scs8hd_inv_8
XANTENNA_mux_top_track_2.mux_l1_in_1_.TGATE_0_.scs8hd_ebufn_2_TEB _042_/A vgnd vpwr
+ scs8hd_diode_2
XANTENNA__162__A _162_/A vgnd vpwr scs8hd_diode_2
XFILLER_1_92 vgnd vpwr scs8hd_decap_4
XANTENNA__056__B _112_/B vgnd vpwr scs8hd_diode_2
XANTENNA__072__A _079_/A vgnd vpwr scs8hd_diode_2
XFILLER_29_22 vgnd vpwr scs8hd_decap_12
XFILLER_29_11 vpwr vgnd scs8hd_fill_2
XFILLER_20_46 vpwr vgnd scs8hd_fill_2
XFILLER_20_68 vpwr vgnd scs8hd_fill_2
XFILLER_20_79 vgnd vpwr scs8hd_decap_6
XANTENNA_mux_right_track_8.mux_l2_in_0_.TGATE_1_.scs8hd_ebufn_2_A mux_right_track_8.mux_l1_in_1_.TGATE_2_.scs8hd_ebufn_2/Z
+ vgnd vpwr scs8hd_diode_2
XFILLER_20_7 vpwr vgnd scs8hd_fill_2
XFILLER_34_178 vgnd vpwr scs8hd_decap_12
XANTENNA__157__A chanx_left_in[5] vgnd vpwr scs8hd_diode_2
Xmux_top_track_2.INVTX1_0_.scs8hd_inv_1 top_right_grid_pin_11_ mux_top_track_2.INVTX1_0_.scs8hd_inv_1/Y
+ vgnd vpwr scs8hd_inv_1
XANTENNA_mux_right_track_16.mux_l1_in_2_.TGATE_0_.scs8hd_ebufn_2_A mux_right_track_16.INVTX1_6_.scs8hd_inv_1/Y
+ vgnd vpwr scs8hd_diode_2
XFILLER_25_178 vpwr vgnd scs8hd_fill_2
XFILLER_25_156 vgnd vpwr scs8hd_decap_3
XANTENNA__067__A _063_/A vgnd vpwr scs8hd_diode_2
XFILLER_15_57 vpwr vgnd scs8hd_fill_2
XFILLER_31_56 vgnd vpwr scs8hd_decap_3
XFILLER_31_12 vgnd vpwr scs8hd_decap_12
XFILLER_0_222 vpwr vgnd scs8hd_fill_2
XPHY_195 vgnd vpwr scs8hd_tapvpwrvgnd_1
XPHY_184 vgnd vpwr scs8hd_tapvpwrvgnd_1
XPHY_173 vgnd vpwr scs8hd_tapvpwrvgnd_1
XPHY_162 vgnd vpwr scs8hd_tapvpwrvgnd_1
XPHY_140 vgnd vpwr scs8hd_tapvpwrvgnd_1
XPHY_151 vgnd vpwr scs8hd_tapvpwrvgnd_1
XFILLER_11_3 vgnd vpwr scs8hd_decap_3
XFILLER_22_159 vpwr vgnd scs8hd_fill_2
XANTENNA_mux_left_track_17.mux_l1_in_0_.TGATE_1_.scs8hd_ebufn_2_TEB mem_left_track_17.LATCH_1_.latch/Q
+ vgnd vpwr scs8hd_diode_2
Xmem_left_track_1.LATCH_1_.latch data_in mem_left_track_1.LATCH_1_.latch/Q _088_/Y
+ vgnd vpwr scs8hd_lpflow_inputisolatch_1
XFILLER_26_56 vgnd vpwr scs8hd_decap_6
XFILLER_26_45 vgnd vpwr scs8hd_decap_8
XFILLER_3_16 vgnd vpwr scs8hd_decap_4
XFILLER_3_49 vpwr vgnd scs8hd_fill_2
XFILLER_8_152 vgnd vpwr scs8hd_fill_1
XFILLER_12_181 vgnd vpwr scs8hd_fill_1
Xmem_right_track_16.LATCH_2_.latch data_in mem_right_track_16.LATCH_2_.latch/Q _079_/Y
+ vgnd vpwr scs8hd_lpflow_inputisolatch_1
XANTENNA__064__B address[2] vgnd vpwr scs8hd_diode_2
XFILLER_10_129 vgnd vpwr scs8hd_decap_4
XFILLER_12_36 vgnd vpwr scs8hd_decap_3
XANTENNA__080__A _073_/A vgnd vpwr scs8hd_diode_2
XANTENNA_mem_top_track_16.LATCH_4_.latch_D data_in vgnd vpwr scs8hd_diode_2
XFILLER_5_177 vgnd vpwr scs8hd_decap_4
XFILLER_5_199 vpwr vgnd scs8hd_fill_2
XFILLER_32_210 vgnd vpwr scs8hd_decap_4
XANTENNA__059__B _077_/A vgnd vpwr scs8hd_diode_2
XFILLER_23_79 vgnd vpwr scs8hd_decap_3
XFILLER_23_57 vpwr vgnd scs8hd_fill_2
XANTENNA__075__A _068_/A vgnd vpwr scs8hd_diode_2
XANTENNA_mem_top_track_8.LATCH_0_.latch_D data_in vgnd vpwr scs8hd_diode_2
XFILLER_23_35 vgnd vpwr scs8hd_decap_3
XFILLER_2_169 vgnd vpwr scs8hd_decap_4
XFILLER_2_147 vgnd vpwr scs8hd_decap_6
XFILLER_2_125 vgnd vpwr scs8hd_decap_3
Xmux_right_track_8.mux_l1_in_0_.TGATE_1_.scs8hd_ebufn_2 mux_right_track_8.INVTX1_1_.scs8hd_inv_1/Y
+ mem_right_track_8.LATCH_1_.latch/Q mux_right_track_8.mux_l1_in_0_.TGATE_0_.scs8hd_ebufn_2/Z
+ vgnd vpwr scs8hd_ebufn_2
Xmux_left_track_9.INVTX1_0_.scs8hd_inv_1 chany_top_in[2] mux_left_track_9.INVTX1_0_.scs8hd_inv_1/Y
+ vgnd vpwr scs8hd_inv_1
XFILLER_20_213 vgnd vpwr scs8hd_fill_1
XANTENNA_mux_right_track_0.mux_l1_in_2_.TGATE_0_.scs8hd_ebufn_2_A mux_right_track_0.INVTX1_6_.scs8hd_inv_1/Y
+ vgnd vpwr scs8hd_diode_2
XFILLER_18_68 vgnd vpwr scs8hd_decap_4
XFILLER_34_56 vgnd vpwr scs8hd_decap_12
X_110_ _073_/A _105_/X _110_/Y vgnd vpwr scs8hd_nor2_4
X_041_ _041_/A _041_/Y vgnd vpwr scs8hd_inv_8
XANTENNA_mux_left_track_17.mux_l1_in_1_.TGATE_0_.scs8hd_ebufn_2_A mux_left_track_17.INVTX1_3_.scs8hd_inv_1/Y
+ vgnd vpwr scs8hd_diode_2
XANTENNA__056__C _068_/C vgnd vpwr scs8hd_diode_2
XANTENNA_mux_top_track_16.tap_buf4_0_.scs8hd_inv_1_A mux_top_track_16.tap_buf4_0_.scs8hd_inv_1/A
+ vgnd vpwr scs8hd_diode_2
XANTENNA__072__B _073_/B vgnd vpwr scs8hd_diode_2
XFILLER_29_34 vgnd vpwr scs8hd_decap_3
XFILLER_28_154 vpwr vgnd scs8hd_fill_2
XFILLER_28_143 vgnd vpwr scs8hd_decap_8
XFILLER_6_16 vgnd vpwr scs8hd_decap_4
XFILLER_6_27 vgnd vpwr scs8hd_decap_4
XFILLER_10_91 vgnd vpwr scs8hd_fill_1
XFILLER_19_176 vgnd vpwr scs8hd_decap_6
XFILLER_19_187 vpwr vgnd scs8hd_fill_2
XANTENNA_mem_left_track_9.LATCH_1_.latch_SLEEPB _095_/Y vgnd vpwr scs8hd_diode_2
XFILLER_33_190 vpwr vgnd scs8hd_fill_2
XFILLER_31_24 vgnd vpwr scs8hd_decap_12
XANTENNA__067__B _074_/A vgnd vpwr scs8hd_diode_2
XANTENNA__083__A address[4] vgnd vpwr scs8hd_diode_2
XFILLER_15_69 vpwr vgnd scs8hd_fill_2
XFILLER_31_79 vgnd vpwr scs8hd_fill_1
XFILLER_31_149 vgnd vpwr scs8hd_decap_4
XFILLER_31_127 vpwr vgnd scs8hd_fill_2
XPHY_130 vgnd vpwr scs8hd_tapvpwrvgnd_1
XFILLER_16_124 vgnd vpwr scs8hd_decap_8
XFILLER_16_168 vgnd vpwr scs8hd_decap_12
XPHY_141 vgnd vpwr scs8hd_tapvpwrvgnd_1
XPHY_152 vgnd vpwr scs8hd_tapvpwrvgnd_1
XPHY_196 vgnd vpwr scs8hd_tapvpwrvgnd_1
XPHY_185 vgnd vpwr scs8hd_tapvpwrvgnd_1
XPHY_174 vgnd vpwr scs8hd_tapvpwrvgnd_1
XANTENNA_mem_left_track_17.LATCH_1_.latch_D data_in vgnd vpwr scs8hd_diode_2
XPHY_163 vgnd vpwr scs8hd_tapvpwrvgnd_1
XFILLER_22_138 vgnd vpwr scs8hd_decap_4
XFILLER_22_149 vgnd vpwr scs8hd_decap_4
Xmux_left_track_1.mux_l1_in_0_.TGATE_0_.scs8hd_ebufn_2 mux_left_track_1.INVTX1_0_.scs8hd_inv_1/Y
+ mem_left_track_1.LATCH_0_.latch/Q mux_left_track_1.mux_l1_in_0_.TGATE_1_.scs8hd_ebufn_2/Z
+ vgnd vpwr scs8hd_ebufn_2
XANTENNA_mux_left_track_17.INVTX1_0_.scs8hd_inv_1_A chany_top_in[1] vgnd vpwr scs8hd_diode_2
XFILLER_26_79 vpwr vgnd scs8hd_fill_2
Xmux_top_track_0.INVTX1_0_.scs8hd_inv_1 top_left_grid_pin_13_ mux_top_track_0.INVTX1_0_.scs8hd_inv_1/Y
+ vgnd vpwr scs8hd_inv_1
XFILLER_13_116 vgnd vpwr scs8hd_decap_4
XANTENNA__078__A _071_/A vgnd vpwr scs8hd_diode_2
Xmux_left_track_17.mux_l1_in_1_.TGATE_0_.scs8hd_ebufn_2 mux_left_track_17.INVTX1_3_.scs8hd_inv_1/Y
+ mem_left_track_17.LATCH_0_.latch/Q mux_left_track_17.mux_l1_in_1_.TGATE_1_.scs8hd_ebufn_2/Z
+ vgnd vpwr scs8hd_ebufn_2
XFILLER_8_197 vpwr vgnd scs8hd_fill_2
XANTENNA_mux_left_track_17.mux_l1_in_1_.TGATE_0_.scs8hd_ebufn_2_TEB mem_left_track_17.LATCH_0_.latch/Q
+ vgnd vpwr scs8hd_diode_2
XFILLER_35_230 vgnd vpwr scs8hd_decap_3
XANTENNA_mux_right_track_8.mux_l1_in_1_.TGATE_1_.scs8hd_ebufn_2_A mux_right_track_8.INVTX1_4_.scs8hd_inv_1/Y
+ vgnd vpwr scs8hd_diode_2
XFILLER_27_219 vpwr vgnd scs8hd_fill_2
XANTENNA_mux_top_track_16.INVTX1_2_.scs8hd_inv_1_A chanx_left_in[1] vgnd vpwr scs8hd_diode_2
XANTENNA__064__C _112_/D vgnd vpwr scs8hd_diode_2
XFILLER_10_108 vpwr vgnd scs8hd_fill_2
XANTENNA__080__B _077_/B vgnd vpwr scs8hd_diode_2
XFILLER_5_9 vgnd vpwr scs8hd_fill_1
Xmux_right_track_8.INVTX1_1_.scs8hd_inv_1 chany_top_in[3] mux_right_track_8.INVTX1_1_.scs8hd_inv_1/Y
+ vgnd vpwr scs8hd_inv_1
XFILLER_18_219 vgnd vpwr scs8hd_decap_12
Xmem_right_track_0.LATCH_1_.latch data_in mem_right_track_0.LATCH_1_.latch/Q _065_/Y
+ vgnd vpwr scs8hd_lpflow_inputisolatch_1
Xmux_right_track_16.mux_l1_in_0_.TGATE_1_.scs8hd_ebufn_2 mux_right_track_16.INVTX1_1_.scs8hd_inv_1/Y
+ mem_right_track_16.LATCH_1_.latch/Q mux_right_track_16.mux_l1_in_0_.TGATE_1_.scs8hd_ebufn_2/Z
+ vgnd vpwr scs8hd_ebufn_2
XFILLER_5_112 vpwr vgnd scs8hd_fill_2
XFILLER_5_134 vpwr vgnd scs8hd_fill_2
Xmem_top_track_8.LATCH_1_.latch data_in _043_/A _114_/Y vgnd vpwr scs8hd_lpflow_inputisolatch_1
XANTENNA_mux_right_track_8.mux_l1_in_2_.TGATE_2_.scs8hd_ebufn_2_TEB mem_right_track_8.LATCH_2_.latch/Q
+ vgnd vpwr scs8hd_diode_2
Xmux_top_track_0.mux_l1_in_0_.TGATE_1_.scs8hd_ebufn_2 mux_top_track_0.INVTX1_1_.scs8hd_inv_1/Y
+ mem_top_track_0.LATCH_1_.latch/Q mux_top_track_0.mux_l2_in_0_.TGATE_0_.scs8hd_ebufn_2/A
+ vgnd vpwr scs8hd_ebufn_2
XANTENNA_mux_right_track_0.mux_l1_in_1_.TGATE_2_.scs8hd_ebufn_2_TEB mem_right_track_0.LATCH_2_.latch/Q
+ vgnd vpwr scs8hd_diode_2
XFILLER_4_60 vgnd vpwr scs8hd_decap_6
XANTENNA__075__B _112_/B vgnd vpwr scs8hd_diode_2
XANTENNA__091__A _069_/A vgnd vpwr scs8hd_diode_2
XFILLER_2_137 vpwr vgnd scs8hd_fill_2
XFILLER_9_16 vgnd vpwr scs8hd_decap_8
XFILLER_1_170 vpwr vgnd scs8hd_fill_2
XANTENNA_mux_top_track_0.mux_l2_in_0_.TGATE_2_.scs8hd_ebufn_2_TEB mem_top_track_0.LATCH_5_.latch/Q
+ vgnd vpwr scs8hd_diode_2
XANTENNA_mux_top_track_16.mux_l2_in_0_.TGATE_1_.scs8hd_ebufn_2_TEB mem_top_track_16.LATCH_4_.latch/Q
+ vgnd vpwr scs8hd_diode_2
Xmux_left_track_1.INVTX1_3_.scs8hd_inv_1 chanx_right_in[0] mux_left_track_1.INVTX1_3_.scs8hd_inv_1/Y
+ vgnd vpwr scs8hd_inv_1
XFILLER_18_36 vgnd vpwr scs8hd_decap_4
XFILLER_34_68 vgnd vpwr scs8hd_decap_12
XANTENNA__086__A _071_/A vgnd vpwr scs8hd_diode_2
XFILLER_1_3 vpwr vgnd scs8hd_fill_2
XFILLER_34_3 vgnd vpwr scs8hd_decap_12
XANTENNA_mem_right_track_8.LATCH_1_.latch_D data_in vgnd vpwr scs8hd_diode_2
XFILLER_29_57 vpwr vgnd scs8hd_fill_2
XFILLER_29_46 vpwr vgnd scs8hd_fill_2
XANTENNA_mem_top_track_16.LATCH_5_.latch_SLEEPB _119_/Y vgnd vpwr scs8hd_diode_2
XFILLER_28_188 vgnd vpwr scs8hd_decap_4
XANTENNA_mem_left_track_1.LATCH_3_.latch_D data_in vgnd vpwr scs8hd_diode_2
Xmux_left_track_9.mux_l1_in_0_.TGATE_2_.scs8hd_ebufn_2 mux_left_track_9.INVTX1_2_.scs8hd_inv_1/Y
+ mem_left_track_9.LATCH_2_.latch/Q mux_left_track_9.mux_l1_in_0_.TGATE_0_.scs8hd_ebufn_2/Z
+ vgnd vpwr scs8hd_ebufn_2
XFILLER_19_199 vgnd vpwr scs8hd_fill_1
XFILLER_34_136 vgnd vpwr scs8hd_fill_1
XFILLER_25_136 vgnd vpwr scs8hd_decap_3
XFILLER_15_26 vpwr vgnd scs8hd_fill_2
XFILLER_15_48 vgnd vpwr scs8hd_decap_6
XFILLER_31_36 vgnd vpwr scs8hd_decap_12
XANTENNA_mux_left_track_9.mux_l2_in_0_.TGATE_0_.scs8hd_ebufn_2_TEB mem_left_track_9.LATCH_3_.latch/Q
+ vgnd vpwr scs8hd_diode_2
XANTENNA__083__B address[3] vgnd vpwr scs8hd_diode_2
XFILLER_31_139 vgnd vpwr scs8hd_fill_1
XPHY_175 vgnd vpwr scs8hd_tapvpwrvgnd_1
XPHY_164 vgnd vpwr scs8hd_tapvpwrvgnd_1
XPHY_120 vgnd vpwr scs8hd_tapvpwrvgnd_1
XPHY_131 vgnd vpwr scs8hd_tapvpwrvgnd_1
XPHY_142 vgnd vpwr scs8hd_tapvpwrvgnd_1
XPHY_153 vgnd vpwr scs8hd_tapvpwrvgnd_1
XPHY_197 vgnd vpwr scs8hd_tapvpwrvgnd_1
XPHY_186 vgnd vpwr scs8hd_tapvpwrvgnd_1
Xmux_right_track_0.mux_l2_in_0_.TGATE_0_.scs8hd_ebufn_2 mux_right_track_0.mux_l2_in_0_.TGATE_0_.scs8hd_ebufn_2/A
+ mem_right_track_0.LATCH_3_.latch/Q mux_right_track_0.tap_buf4_0_.scs8hd_inv_1/A
+ vgnd vpwr scs8hd_ebufn_2
XPHY_0 vgnd vpwr scs8hd_decap_3