* NGSPICE file created from sb_1__0_.ext - technology: EFS8A

* Black-box entry subcircuit for scs8hd_decap_8 abstract view
.subckt scs8hd_decap_8 vgnd vpwr
.ends

* Black-box entry subcircuit for scs8hd_decap_12 abstract view
.subckt scs8hd_decap_12 vgnd vpwr
.ends

* Black-box entry subcircuit for scs8hd_diode_2 abstract view
.subckt scs8hd_diode_2 DIODE vgnd vpwr
.ends

* Black-box entry subcircuit for scs8hd_fill_2 abstract view
.subckt scs8hd_fill_2 vpwr vgnd
.ends

* Black-box entry subcircuit for scs8hd_inv_1 abstract view
.subckt scs8hd_inv_1 A Y vgnd vpwr
.ends

* Black-box entry subcircuit for scs8hd_decap_3 abstract view
.subckt scs8hd_decap_3 vgnd vpwr
.ends

* Black-box entry subcircuit for scs8hd_decap_6 abstract view
.subckt scs8hd_decap_6 vgnd vpwr
.ends

* Black-box entry subcircuit for scs8hd_ebufn_2 abstract view
.subckt scs8hd_ebufn_2 A TEB Z vgnd vpwr
.ends

* Black-box entry subcircuit for scs8hd_buf_2 abstract view
.subckt scs8hd_buf_2 A X vgnd vpwr
.ends

* Black-box entry subcircuit for scs8hd_fill_1 abstract view
.subckt scs8hd_fill_1 vgnd vpwr
.ends

* Black-box entry subcircuit for scs8hd_nor2_4 abstract view
.subckt scs8hd_nor2_4 A B Y vgnd vpwr
.ends

* Black-box entry subcircuit for scs8hd_decap_4 abstract view
.subckt scs8hd_decap_4 vgnd vpwr
.ends

* Black-box entry subcircuit for scs8hd_lpflow_inputisolatch_1 abstract view
.subckt scs8hd_lpflow_inputisolatch_1 D Q SLEEPB vgnd vpwr
.ends

* Black-box entry subcircuit for scs8hd_tapvpwrvgnd_1 abstract view
.subckt scs8hd_tapvpwrvgnd_1 vgnd vpwr
.ends

* Black-box entry subcircuit for scs8hd_buf_1 abstract view
.subckt scs8hd_buf_1 A X vgnd vpwr
.ends

* Black-box entry subcircuit for scs8hd_conb_1 abstract view
.subckt scs8hd_conb_1 HI LO vgnd vpwr
.ends

* Black-box entry subcircuit for scs8hd_or3_4 abstract view
.subckt scs8hd_or3_4 A B C X vgnd vpwr
.ends

* Black-box entry subcircuit for scs8hd_or2_4 abstract view
.subckt scs8hd_or2_4 A B X vgnd vpwr
.ends

* Black-box entry subcircuit for scs8hd_inv_8 abstract view
.subckt scs8hd_inv_8 A Y vgnd vpwr
.ends

* Black-box entry subcircuit for scs8hd_nor4_4 abstract view
.subckt scs8hd_nor4_4 A B C D Y vgnd vpwr
.ends

* Black-box entry subcircuit for scs8hd_nor3_4 abstract view
.subckt scs8hd_nor3_4 A B C Y vgnd vpwr
.ends

* Black-box entry subcircuit for scs8hd_or4_4 abstract view
.subckt scs8hd_or4_4 A B C D X vgnd vpwr
.ends

* Black-box entry subcircuit for scs8hd_nand3_4 abstract view
.subckt scs8hd_nand3_4 A B C Y vgnd vpwr
.ends

.subckt sb_1__0_ address[0] address[1] address[2] address[3] address[4] address[5]
+ address[6] chanx_left_in[0] chanx_left_in[1] chanx_left_in[2] chanx_left_in[3] chanx_left_in[4]
+ chanx_left_in[5] chanx_left_in[6] chanx_left_in[7] chanx_left_in[8] chanx_left_out[0]
+ chanx_left_out[1] chanx_left_out[2] chanx_left_out[3] chanx_left_out[4] chanx_left_out[5]
+ chanx_left_out[6] chanx_left_out[7] chanx_left_out[8] chanx_right_in[0] chanx_right_in[1]
+ chanx_right_in[2] chanx_right_in[3] chanx_right_in[4] chanx_right_in[5] chanx_right_in[6]
+ chanx_right_in[7] chanx_right_in[8] chanx_right_out[0] chanx_right_out[1] chanx_right_out[2]
+ chanx_right_out[3] chanx_right_out[4] chanx_right_out[5] chanx_right_out[6] chanx_right_out[7]
+ chanx_right_out[8] chany_top_in[0] chany_top_in[1] chany_top_in[2] chany_top_in[3]
+ chany_top_in[4] chany_top_in[5] chany_top_in[6] chany_top_in[7] chany_top_in[8]
+ chany_top_out[0] chany_top_out[1] chany_top_out[2] chany_top_out[3] chany_top_out[4]
+ chany_top_out[5] chany_top_out[6] chany_top_out[7] chany_top_out[8] data_in enable
+ left_bottom_grid_pin_11_ left_bottom_grid_pin_13_ left_bottom_grid_pin_15_ left_bottom_grid_pin_1_
+ left_bottom_grid_pin_3_ left_bottom_grid_pin_5_ left_bottom_grid_pin_7_ left_bottom_grid_pin_9_
+ left_top_grid_pin_10_ right_bottom_grid_pin_11_ right_bottom_grid_pin_13_ right_bottom_grid_pin_15_
+ right_bottom_grid_pin_1_ right_bottom_grid_pin_3_ right_bottom_grid_pin_5_ right_bottom_grid_pin_7_
+ right_bottom_grid_pin_9_ right_top_grid_pin_10_ top_left_grid_pin_13_ top_right_grid_pin_11_
+ vpwr vgnd
XFILLER_39_233 vgnd vpwr scs8hd_decap_8
XFILLER_39_211 vgnd vpwr scs8hd_decap_12
XFILLER_22_144 vgnd vpwr scs8hd_decap_8
XANTENNA_mem_top_track_2.LATCH_1_.latch_SLEEPB _159_/Y vgnd vpwr scs8hd_diode_2
XFILLER_9_115 vpwr vgnd scs8hd_fill_2
XFILLER_13_199 vpwr vgnd scs8hd_fill_2
XANTENNA__113__B _112_/B vgnd vpwr scs8hd_diode_2
XANTENNA_mem_top_track_0.LATCH_3_.latch_D data_in vgnd vpwr scs8hd_diode_2
Xmux_top_track_8.INVTX1_0_.scs8hd_inv_1 chanx_right_in[6] mux_top_track_8.INVTX1_0_.scs8hd_inv_1/Y
+ vgnd vpwr scs8hd_inv_1
XFILLER_8_181 vpwr vgnd scs8hd_fill_2
XFILLER_27_258 vgnd vpwr scs8hd_decap_12
XFILLER_27_236 vpwr vgnd scs8hd_fill_2
XFILLER_27_225 vpwr vgnd scs8hd_fill_2
XANTENNA_mux_left_track_9.mux_l2_in_0_.TGATE_1_.scs8hd_ebufn_2_A mux_left_track_9.mux_l1_in_1_.TGATE_0_.scs8hd_ebufn_2/Z
+ vgnd vpwr scs8hd_diode_2
XFILLER_6_118 vgnd vpwr scs8hd_decap_8
XFILLER_10_103 vpwr vgnd scs8hd_fill_2
XFILLER_12_32 vgnd vpwr scs8hd_decap_12
XANTENNA_mem_top_track_16.LATCH_0_.latch_SLEEPB _172_/Y vgnd vpwr scs8hd_diode_2
XFILLER_37_62 vgnd vpwr scs8hd_decap_12
XFILLER_18_247 vgnd vpwr scs8hd_decap_3
XANTENNA__108__B _106_/B vgnd vpwr scs8hd_diode_2
XANTENNA__124__A _114_/A vgnd vpwr scs8hd_diode_2
XANTENNA_mux_right_track_16.mux_l1_in_1_.TGATE_2_.scs8hd_ebufn_2_TEB mem_right_track_16.LATCH_2_.latch/Q
+ vgnd vpwr scs8hd_diode_2
XFILLER_5_184 vgnd vpwr scs8hd_decap_12
XFILLER_24_206 vgnd vpwr scs8hd_decap_6
Xmux_left_track_1.mux_l2_in_0_.TGATE_0_.scs8hd_ebufn_2 mux_left_track_1.mux_l1_in_0_.TGATE_2_.scs8hd_ebufn_2/Z
+ mem_left_track_1.LATCH_3_.latch/Q mux_left_track_1.tap_buf4_0_.scs8hd_inv_1/A vgnd
+ vpwr scs8hd_ebufn_2
XANTENNA__209__A _209_/A vgnd vpwr scs8hd_diode_2
X_200_ chanx_left_in[0] chanx_right_out[1] vgnd vpwr scs8hd_buf_2
XANTENNA_mem_right_track_16.LATCH_4_.latch_D data_in vgnd vpwr scs8hd_diode_2
XFILLER_15_217 vgnd vpwr scs8hd_fill_1
X_131_ _113_/A _128_/X _131_/Y vgnd vpwr scs8hd_nor2_4
XFILLER_2_154 vgnd vpwr scs8hd_decap_12
XANTENNA__119__A address[4] vgnd vpwr scs8hd_diode_2
XFILLER_21_209 vpwr vgnd scs8hd_fill_2
XFILLER_12_209 vgnd vpwr scs8hd_decap_4
XFILLER_20_242 vgnd vpwr scs8hd_decap_3
XANTENNA_mem_top_track_16.LATCH_1_.latch_D data_in vgnd vpwr scs8hd_diode_2
XFILLER_18_20 vgnd vpwr scs8hd_decap_8
XFILLER_18_64 vpwr vgnd scs8hd_fill_2
XFILLER_34_30 vgnd vpwr scs8hd_fill_1
XFILLER_11_231 vgnd vpwr scs8hd_decap_3
X_114_ _114_/A _112_/B _114_/Y vgnd vpwr scs8hd_nor2_4
XFILLER_7_257 vgnd vpwr scs8hd_decap_12
XANTENNA_mem_top_track_0.LATCH_2_.latch_SLEEPB _155_/Y vgnd vpwr scs8hd_diode_2
XFILLER_38_128 vgnd vpwr scs8hd_decap_12
Xmux_right_track_16.mux_l2_in_0_.TGATE_1_.scs8hd_ebufn_2 mux_right_track_16.mux_l1_in_1_.TGATE_0_.scs8hd_ebufn_2/Z
+ mem_right_track_16.LATCH_4_.latch/Q mux_right_track_16.tap_buf4_0_.scs8hd_inv_1/A
+ vgnd vpwr scs8hd_ebufn_2
Xmux_left_track_9.INVTX1_3_.scs8hd_inv_1 chanx_right_in[1] mux_left_track_9.INVTX1_3_.scs8hd_inv_1/Y
+ vgnd vpwr scs8hd_inv_1
XANTENNA__121__B _124_/B vgnd vpwr scs8hd_diode_2
Xmux_top_track_0.mux_l2_in_0_.TGATE_1_.scs8hd_ebufn_2 mux_top_track_0.mux_l1_in_1_.TGATE_0_.scs8hd_ebufn_2/Z
+ mem_top_track_0.LATCH_4_.latch/Q mux_top_track_0.tap_buf4_0_.scs8hd_inv_1/A vgnd
+ vpwr scs8hd_ebufn_2
XANTENNA_mux_right_track_16.mux_l2_in_0_.TGATE_2_.scs8hd_ebufn_2_A mux_right_track_16.mux_l1_in_2_.TGATE_1_.scs8hd_ebufn_2/Z
+ vgnd vpwr scs8hd_diode_2
Xmux_right_track_8.mux_l1_in_1_.TGATE_2_.scs8hd_ebufn_2 mux_right_track_8.INVTX1_5_.scs8hd_inv_1/Y
+ mem_right_track_8.LATCH_2_.latch/Q mux_right_track_8.mux_l2_in_0_.TGATE_1_.scs8hd_ebufn_2/A
+ vgnd vpwr scs8hd_ebufn_2
XFILLER_20_10 vpwr vgnd scs8hd_fill_2
XFILLER_20_21 vgnd vpwr scs8hd_decap_4
XANTENNA__116__B _112_/B vgnd vpwr scs8hd_diode_2
XANTENNA_mux_right_track_16.INVTX1_7_.scs8hd_inv_1_A chanx_left_in[6] vgnd vpwr scs8hd_diode_2
XFILLER_6_56 vgnd vpwr scs8hd_decap_12
XANTENNA_mem_top_track_14.LATCH_1_.latch_SLEEPB _163_/Y vgnd vpwr scs8hd_diode_2
XANTENNA__132__A _114_/A vgnd vpwr scs8hd_diode_2
XFILLER_19_172 vgnd vpwr scs8hd_fill_1
Xmem_right_track_8.LATCH_1_.latch data_in mem_right_track_8.LATCH_1_.latch/Q _106_/Y
+ vgnd vpwr scs8hd_lpflow_inputisolatch_1
XANTENNA_mux_top_track_0.mux_l2_in_0_.TGATE_2_.scs8hd_ebufn_2_A _179_/HI vgnd vpwr
+ scs8hd_diode_2
XFILLER_1_208 vgnd vpwr scs8hd_decap_12
XFILLER_25_175 vgnd vpwr scs8hd_decap_6
XFILLER_25_142 vgnd vpwr scs8hd_decap_4
XFILLER_15_21 vgnd vpwr scs8hd_decap_4
XFILLER_15_32 vpwr vgnd scs8hd_fill_2
XFILLER_40_178 vgnd vpwr scs8hd_fill_1
XFILLER_31_31 vpwr vgnd scs8hd_fill_2
XFILLER_31_97 vpwr vgnd scs8hd_fill_2
XFILLER_0_230 vgnd vpwr scs8hd_decap_12
XFILLER_0_274 vgnd vpwr scs8hd_decap_3
XFILLER_31_123 vgnd vpwr scs8hd_decap_8
XFILLER_31_101 vgnd vpwr scs8hd_decap_3
XANTENNA__127__A address[4] vgnd vpwr scs8hd_diode_2
XPHY_170 vgnd vpwr scs8hd_tapvpwrvgnd_1
XANTENNA_mem_left_track_9.LATCH_4_.latch_SLEEPB _130_/Y vgnd vpwr scs8hd_diode_2
XPHY_181 vgnd vpwr scs8hd_tapvpwrvgnd_1
XPHY_192 vgnd vpwr scs8hd_tapvpwrvgnd_1
XFILLER_39_223 vpwr vgnd scs8hd_fill_2
XFILLER_39_245 vpwr vgnd scs8hd_fill_2
XANTENNA_mux_left_track_1.mux_l1_in_2_.TGATE_0_.scs8hd_ebufn_2_A mux_left_track_1.INVTX1_6_.scs8hd_inv_1/Y
+ vgnd vpwr scs8hd_diode_2
XFILLER_22_112 vgnd vpwr scs8hd_decap_6
XFILLER_22_189 vgnd vpwr scs8hd_decap_4
XFILLER_13_101 vpwr vgnd scs8hd_fill_2
XFILLER_13_123 vgnd vpwr scs8hd_decap_3
XFILLER_13_156 vpwr vgnd scs8hd_fill_2
XFILLER_42_63 vgnd vpwr scs8hd_decap_12
XFILLER_9_127 vgnd vpwr scs8hd_fill_1
XFILLER_36_215 vgnd vpwr scs8hd_decap_12
Xmux_left_track_9.mux_l2_in_0_.TGATE_2_.scs8hd_ebufn_2 mux_left_track_9.mux_l1_in_2_.TGATE_1_.scs8hd_ebufn_2/Z
+ mem_left_track_9.LATCH_5_.latch/Q mux_left_track_9.tap_buf4_0_.scs8hd_inv_1/A vgnd
+ vpwr scs8hd_ebufn_2
Xmux_top_track_0.INVTX1_3_.scs8hd_inv_1 chanx_left_in[0] mux_top_track_0.INVTX1_3_.scs8hd_inv_1/Y
+ vgnd vpwr scs8hd_inv_1
XFILLER_42_218 vgnd vpwr scs8hd_decap_12
XANTENNA_mux_right_track_0.INVTX1_4_.scs8hd_inv_1_A right_bottom_grid_pin_5_ vgnd
+ vpwr scs8hd_diode_2
Xmux_left_track_1.mux_l1_in_1_.TGATE_1_.scs8hd_ebufn_2 mux_left_track_1.INVTX1_4_.scs8hd_inv_1/Y
+ mem_left_track_1.LATCH_1_.latch/Q mux_left_track_1.mux_l2_in_0_.TGATE_1_.scs8hd_ebufn_2/A
+ vgnd vpwr scs8hd_ebufn_2
XFILLER_12_44 vgnd vpwr scs8hd_decap_6
XFILLER_12_88 vpwr vgnd scs8hd_fill_2
XFILLER_37_74 vgnd vpwr scs8hd_decap_12
Xmux_left_track_17.mux_l1_in_2_.TGATE_1_.scs8hd_ebufn_2 mux_left_track_17.INVTX1_7_.scs8hd_inv_1/Y
+ mem_left_track_17.LATCH_1_.latch/Q mux_left_track_17.mux_l1_in_2_.TGATE_2_.scs8hd_ebufn_2/Z
+ vgnd vpwr scs8hd_ebufn_2
XANTENNA_mux_left_track_17.mux_l2_in_0_.TGATE_0_.scs8hd_ebufn_2_TEB mem_left_track_17.LATCH_3_.latch/Q
+ vgnd vpwr scs8hd_diode_2
XFILLER_18_215 vgnd vpwr scs8hd_decap_3
XFILLER_18_259 vgnd vpwr scs8hd_decap_12
XFILLER_5_196 vgnd vpwr scs8hd_decap_12
XFILLER_5_174 vpwr vgnd scs8hd_fill_2
XFILLER_5_141 vpwr vgnd scs8hd_fill_2
XANTENNA__124__B _124_/B vgnd vpwr scs8hd_diode_2
XANTENNA__140__A _114_/A vgnd vpwr scs8hd_diode_2
XANTENNA_mux_top_track_0.INVTX1_0_.scs8hd_inv_1_A top_left_grid_pin_13_ vgnd vpwr
+ scs8hd_diode_2
XFILLER_32_251 vgnd vpwr scs8hd_decap_12
Xmux_right_track_8.INVTX1_4_.scs8hd_inv_1 right_bottom_grid_pin_7_ mux_right_track_8.INVTX1_4_.scs8hd_inv_1/Y
+ vgnd vpwr scs8hd_inv_1
XANTENNA_mux_right_track_8.INVTX1_6_.scs8hd_inv_1_A chanx_left_in[1] vgnd vpwr scs8hd_diode_2
XANTENNA_mux_left_track_9.INVTX1_0_.scs8hd_inv_1_A chany_top_in[2] vgnd vpwr scs8hd_diode_2
XFILLER_15_207 vgnd vpwr scs8hd_decap_4
XANTENNA_mux_right_track_0.mux_l2_in_0_.TGATE_2_.scs8hd_ebufn_2_A mux_right_track_0.mux_l1_in_2_.TGATE_2_.scs8hd_ebufn_2/Z
+ vgnd vpwr scs8hd_diode_2
X_130_ _112_/A _128_/X _130_/Y vgnd vpwr scs8hd_nor2_4
XANTENNA_mux_right_track_0.mux_l2_in_0_.TGATE_2_.scs8hd_ebufn_2_TEB mem_right_track_0.LATCH_5_.latch/Q
+ vgnd vpwr scs8hd_diode_2
XFILLER_23_10 vpwr vgnd scs8hd_fill_2
XANTENNA_mem_right_track_0.LATCH_4_.latch_D data_in vgnd vpwr scs8hd_diode_2
XANTENNA_mux_right_track_16.mux_l1_in_2_.TGATE_1_.scs8hd_ebufn_2_TEB mem_right_track_16.LATCH_1_.latch/Q
+ vgnd vpwr scs8hd_diode_2
Xmux_right_track_16.mux_l1_in_1_.TGATE_2_.scs8hd_ebufn_2 mux_right_track_16.INVTX1_5_.scs8hd_inv_1/Y
+ mem_right_track_16.LATCH_2_.latch/Q mux_right_track_16.mux_l1_in_1_.TGATE_0_.scs8hd_ebufn_2/Z
+ vgnd vpwr scs8hd_ebufn_2
XFILLER_2_166 vgnd vpwr scs8hd_decap_12
XANTENNA__119__B address[3] vgnd vpwr scs8hd_diode_2
XANTENNA__135__A _163_/A vgnd vpwr scs8hd_diode_2
XFILLER_14_273 vpwr vgnd scs8hd_fill_2
XFILLER_20_232 vgnd vpwr scs8hd_fill_1
XFILLER_20_276 vgnd vpwr scs8hd_fill_1
XFILLER_18_32 vgnd vpwr scs8hd_fill_1
X_113_ _113_/A _112_/B _113_/Y vgnd vpwr scs8hd_nor2_4
XFILLER_11_210 vpwr vgnd scs8hd_fill_2
XFILLER_7_269 vgnd vpwr scs8hd_decap_8
XANTENNA_mem_left_track_1.LATCH_0_.latch_SLEEPB _126_/Y vgnd vpwr scs8hd_diode_2
Xmux_left_track_1.INVTX1_6_.scs8hd_inv_1 left_bottom_grid_pin_5_ mux_left_track_1.INVTX1_6_.scs8hd_inv_1/Y
+ vgnd vpwr scs8hd_inv_1
XANTENNA_mux_left_track_9.mux_l1_in_1_.TGATE_1_.scs8hd_ebufn_2_A mux_left_track_9.INVTX1_4_.scs8hd_inv_1/Y
+ vgnd vpwr scs8hd_diode_2
XFILLER_37_184 vgnd vpwr scs8hd_decap_12
XFILLER_4_228 vgnd vpwr scs8hd_decap_12
XFILLER_29_53 vpwr vgnd scs8hd_fill_2
XFILLER_6_68 vgnd vpwr scs8hd_decap_12
XANTENNA__132__B _128_/X vgnd vpwr scs8hd_diode_2
XANTENNA_mem_right_track_16.LATCH_0_.latch_SLEEPB _116_/Y vgnd vpwr scs8hd_diode_2
XFILLER_19_151 vpwr vgnd scs8hd_fill_2
XFILLER_19_184 vpwr vgnd scs8hd_fill_2
XFILLER_19_195 vpwr vgnd scs8hd_fill_2
XFILLER_34_154 vgnd vpwr scs8hd_decap_12
XANTENNA_mux_top_track_16.mux_l1_in_0_.TGATE_1_.scs8hd_ebufn_2_TEB mem_top_track_16.LATCH_1_.latch/Q
+ vgnd vpwr scs8hd_diode_2
XANTENNA_mux_left_track_1.mux_l1_in_2_.TGATE_2_.scs8hd_ebufn_2_TEB mem_left_track_1.LATCH_2_.latch/Q
+ vgnd vpwr scs8hd_diode_2
XANTENNA_mux_top_track_0.mux_l1_in_0_.TGATE_2_.scs8hd_ebufn_2_TEB mem_top_track_0.LATCH_2_.latch/Q
+ vgnd vpwr scs8hd_diode_2
XFILLER_25_198 vgnd vpwr scs8hd_decap_4
XFILLER_31_65 vpwr vgnd scs8hd_fill_2
XFILLER_15_88 vpwr vgnd scs8hd_fill_2
XFILLER_31_87 vgnd vpwr scs8hd_decap_4
XFILLER_0_242 vgnd vpwr scs8hd_decap_6
Xmux_right_track_16.INVTX1_0_.scs8hd_inv_1 chany_top_in[1] mux_right_track_16.INVTX1_0_.scs8hd_inv_1/Y
+ vgnd vpwr scs8hd_inv_1
XFILLER_31_179 vpwr vgnd scs8hd_fill_2
Xmux_left_track_17.INVTX1_1_.scs8hd_inv_1 chany_top_in[4] mux_left_track_17.INVTX1_1_.scs8hd_inv_1/Y
+ vgnd vpwr scs8hd_inv_1
XANTENNA__127__B _163_/B vgnd vpwr scs8hd_diode_2
XPHY_160 vgnd vpwr scs8hd_tapvpwrvgnd_1
XFILLER_16_187 vgnd vpwr scs8hd_decap_6
XPHY_171 vgnd vpwr scs8hd_tapvpwrvgnd_1
XPHY_182 vgnd vpwr scs8hd_tapvpwrvgnd_1
XPHY_193 vgnd vpwr scs8hd_tapvpwrvgnd_1
XANTENNA__143__A _143_/A vgnd vpwr scs8hd_diode_2
XFILLER_30_190 vpwr vgnd scs8hd_fill_2
XFILLER_22_168 vgnd vpwr scs8hd_decap_8
XFILLER_26_32 vpwr vgnd scs8hd_fill_2
Xmux_top_track_2.mux_l1_in_0_.TGATE_1_.scs8hd_ebufn_2 mux_top_track_2.INVTX1_1_.scs8hd_inv_1/Y
+ _144_/Y mux_top_track_2.mux_l2_in_0_.TGATE_0_.scs8hd_ebufn_2/A vgnd vpwr scs8hd_ebufn_2
XFILLER_9_139 vpwr vgnd scs8hd_fill_2
XFILLER_13_179 vpwr vgnd scs8hd_fill_2
XANTENNA_mem_left_track_1.LATCH_0_.latch_D data_in vgnd vpwr scs8hd_diode_2
XFILLER_42_75 vgnd vpwr scs8hd_decap_12
XFILLER_36_227 vgnd vpwr scs8hd_decap_12
XANTENNA_mux_right_track_16.mux_l1_in_1_.TGATE_2_.scs8hd_ebufn_2_A mux_right_track_16.INVTX1_5_.scs8hd_inv_1/Y
+ vgnd vpwr scs8hd_diode_2
XANTENNA__138__A _112_/A vgnd vpwr scs8hd_diode_2
XFILLER_8_161 vpwr vgnd scs8hd_fill_2
XFILLER_8_150 vgnd vpwr scs8hd_decap_3
XFILLER_8_194 vgnd vpwr scs8hd_decap_8
XANTENNA_mux_left_track_9.mux_l1_in_0_.TGATE_0_.scs8hd_ebufn_2_TEB mem_left_track_9.LATCH_0_.latch/Q
+ vgnd vpwr scs8hd_diode_2
XFILLER_37_86 vgnd vpwr scs8hd_decap_12
XFILLER_37_31 vgnd vpwr scs8hd_decap_12
XFILLER_33_208 vgnd vpwr scs8hd_decap_12
XFILLER_41_263 vgnd vpwr scs8hd_decap_12
XANTENNA__140__B _136_/X vgnd vpwr scs8hd_diode_2
XFILLER_32_263 vgnd vpwr scs8hd_decap_12
Xmux_right_track_0.INVTX1_7_.scs8hd_inv_1 chanx_left_in[4] mux_right_track_0.INVTX1_7_.scs8hd_inv_1/Y
+ vgnd vpwr scs8hd_inv_1
XFILLER_23_77 vgnd vpwr scs8hd_decap_6
XFILLER_23_44 vgnd vpwr scs8hd_decap_4
XFILLER_3_3 vgnd vpwr scs8hd_decap_12
XFILLER_0_15 vgnd vpwr scs8hd_decap_12
XFILLER_2_178 vgnd vpwr scs8hd_decap_12
XANTENNA__119__C address[5] vgnd vpwr scs8hd_diode_2
XFILLER_14_230 vgnd vpwr scs8hd_decap_4
X_189_ chanx_right_in[2] chanx_left_out[3] vgnd vpwr scs8hd_buf_2
XANTENNA__135__B address[3] vgnd vpwr scs8hd_diode_2
XANTENNA__151__A _151_/A vgnd vpwr scs8hd_diode_2
XANTENNA_mux_top_track_2.mux_l1_in_0_.TGATE_1_.scs8hd_ebufn_2_TEB _144_/Y vgnd vpwr
+ scs8hd_diode_2
XANTENNA_mux_right_track_16.INVTX1_2_.scs8hd_inv_1_A chany_top_in[7] vgnd vpwr scs8hd_diode_2
XFILLER_18_44 vgnd vpwr scs8hd_decap_8
XFILLER_34_32 vgnd vpwr scs8hd_decap_12
XANTENNA_mux_top_track_16.mux_l2_in_0_.TGATE_2_.scs8hd_ebufn_2_A _181_/HI vgnd vpwr
+ scs8hd_diode_2
XFILLER_18_88 vgnd vpwr scs8hd_decap_4
X_112_ _112_/A _112_/B _112_/Y vgnd vpwr scs8hd_nor2_4
XFILLER_7_204 vgnd vpwr scs8hd_decap_12
XFILLER_15_8 vpwr vgnd scs8hd_fill_2
XANTENNA__146__A _146_/A vgnd vpwr scs8hd_diode_2
XFILLER_29_119 vgnd vpwr scs8hd_fill_1
XFILLER_29_108 vgnd vpwr scs8hd_decap_4
XFILLER_37_196 vgnd vpwr scs8hd_decap_12
XFILLER_20_56 vpwr vgnd scs8hd_fill_2
XFILLER_20_67 vpwr vgnd scs8hd_fill_2
XFILLER_29_76 vpwr vgnd scs8hd_fill_2
XFILLER_29_43 vpwr vgnd scs8hd_fill_2
XFILLER_28_152 vgnd vpwr scs8hd_fill_1
XFILLER_34_166 vgnd vpwr scs8hd_decap_12
XANTENNA_mux_right_track_0.mux_l1_in_1_.TGATE_2_.scs8hd_ebufn_2_A mux_right_track_0.INVTX1_5_.scs8hd_inv_1/Y
+ vgnd vpwr scs8hd_diode_2
XANTENNA_mux_left_track_17.mux_l1_in_0_.TGATE_2_.scs8hd_ebufn_2_A mux_left_track_17.INVTX1_2_.scs8hd_inv_1/Y
+ vgnd vpwr scs8hd_diode_2
XFILLER_25_188 vgnd vpwr scs8hd_fill_1
XFILLER_15_45 vpwr vgnd scs8hd_fill_2
XFILLER_15_56 vgnd vpwr scs8hd_decap_3
XFILLER_15_67 vpwr vgnd scs8hd_fill_2
XFILLER_31_44 vpwr vgnd scs8hd_fill_2
XFILLER_31_22 vpwr vgnd scs8hd_fill_2
XFILLER_31_11 vgnd vpwr scs8hd_decap_4
XFILLER_16_144 vpwr vgnd scs8hd_fill_2
Xmux_right_track_0.mux_l1_in_2_.TGATE_2_.scs8hd_ebufn_2 _176_/HI mem_right_track_0.LATCH_2_.latch/Q
+ mux_right_track_0.mux_l1_in_2_.TGATE_2_.scs8hd_ebufn_2/Z vgnd vpwr scs8hd_ebufn_2
XFILLER_31_114 vpwr vgnd scs8hd_fill_2
XANTENNA_mem_right_track_8.LATCH_5_.latch_SLEEPB _098_/Y vgnd vpwr scs8hd_diode_2
XPHY_194 vgnd vpwr scs8hd_tapvpwrvgnd_1
XANTENNA__127__C address[5] vgnd vpwr scs8hd_diode_2
XPHY_150 vgnd vpwr scs8hd_tapvpwrvgnd_1
XPHY_161 vgnd vpwr scs8hd_tapvpwrvgnd_1
XFILLER_16_177 vgnd vpwr scs8hd_fill_1
XPHY_172 vgnd vpwr scs8hd_tapvpwrvgnd_1
XPHY_183 vgnd vpwr scs8hd_tapvpwrvgnd_1
XANTENNA_mem_left_track_9.LATCH_4_.latch_D data_in vgnd vpwr scs8hd_diode_2
XANTENNA_mux_top_track_0.mux_l1_in_1_.TGATE_1_.scs8hd_ebufn_2_TEB mem_top_track_0.LATCH_1_.latch/Q
+ vgnd vpwr scs8hd_diode_2
XFILLER_26_66 vgnd vpwr scs8hd_decap_6
XFILLER_42_87 vgnd vpwr scs8hd_decap_6
XFILLER_42_32 vgnd vpwr scs8hd_decap_12
XFILLER_26_88 vgnd vpwr scs8hd_decap_4
XFILLER_13_114 vpwr vgnd scs8hd_fill_2
XFILLER_13_147 vpwr vgnd scs8hd_fill_2
XFILLER_13_169 vgnd vpwr scs8hd_decap_3
XANTENNA_mux_right_track_8.INVTX1_1_.scs8hd_inv_1_A chany_top_in[3] vgnd vpwr scs8hd_diode_2
XFILLER_21_191 vpwr vgnd scs8hd_fill_2
XFILLER_3_59 vpwr vgnd scs8hd_fill_2
XFILLER_3_15 vgnd vpwr scs8hd_decap_12
XFILLER_36_239 vgnd vpwr scs8hd_decap_12
XANTENNA__138__B _136_/X vgnd vpwr scs8hd_diode_2
XANTENNA__154__A _113_/A vgnd vpwr scs8hd_diode_2
XANTENNA_mux_left_track_17.mux_l2_in_0_.TGATE_0_.scs8hd_ebufn_2_A mux_left_track_17.mux_l1_in_0_.TGATE_2_.scs8hd_ebufn_2/Z
+ vgnd vpwr scs8hd_diode_2
XFILLER_10_128 vpwr vgnd scs8hd_fill_2
XFILLER_18_206 vgnd vpwr scs8hd_fill_1
XFILLER_41_220 vgnd vpwr scs8hd_decap_12
XFILLER_37_98 vgnd vpwr scs8hd_decap_12
XFILLER_37_43 vgnd vpwr scs8hd_decap_12
XANTENNA_mux_top_track_8.mux_l2_in_0_.TGATE_1_.scs8hd_ebufn_2_A _183_/HI vgnd vpwr
+ scs8hd_diode_2
XFILLER_41_275 vpwr vgnd scs8hd_fill_2
XFILLER_41_253 vpwr vgnd scs8hd_fill_2
XFILLER_5_110 vpwr vgnd scs8hd_fill_2
XFILLER_38_7 vgnd vpwr scs8hd_decap_12
Xmem_top_track_0.LATCH_0_.latch data_in mem_top_track_0.LATCH_0_.latch/Q _157_/Y vgnd
+ vpwr scs8hd_lpflow_inputisolatch_1
XANTENNA__149__A _149_/A vgnd vpwr scs8hd_diode_2
XANTENNA_mux_left_track_17.INVTX1_5_.scs8hd_inv_1_A left_bottom_grid_pin_3_ vgnd vpwr
+ scs8hd_diode_2
XFILLER_4_80 vgnd vpwr scs8hd_decap_12
XFILLER_23_220 vpwr vgnd scs8hd_fill_2
XFILLER_0_27 vgnd vpwr scs8hd_decap_4
Xmem_left_track_17.LATCH_3_.latch data_in mem_left_track_17.LATCH_3_.latch/Q _139_/Y
+ vgnd vpwr scs8hd_lpflow_inputisolatch_1
XANTENNA__119__D _135_/D vgnd vpwr scs8hd_diode_2
X_188_ _188_/A chanx_left_out[4] vgnd vpwr scs8hd_buf_2
XANTENNA__135__C address[5] vgnd vpwr scs8hd_diode_2
XFILLER_29_3 vgnd vpwr scs8hd_decap_4
XFILLER_34_44 vgnd vpwr scs8hd_decap_12
X_111_ _111_/A _112_/B _111_/Y vgnd vpwr scs8hd_nor2_4
XFILLER_7_216 vgnd vpwr scs8hd_decap_12
XFILLER_11_245 vpwr vgnd scs8hd_fill_2
XANTENNA_mem_right_track_0.LATCH_1_.latch_SLEEPB _090_/Y vgnd vpwr scs8hd_diode_2
XANTENNA_mux_top_track_2.mux_l1_in_1_.TGATE_0_.scs8hd_ebufn_2_TEB _144_/A vgnd vpwr
+ scs8hd_diode_2
XANTENNA__162__A _095_/X vgnd vpwr scs8hd_diode_2
XFILLER_37_153 vgnd vpwr scs8hd_fill_1
XANTENNA__072__A address[6] vgnd vpwr scs8hd_diode_2
XFILLER_29_22 vpwr vgnd scs8hd_fill_2
XFILLER_20_46 vgnd vpwr scs8hd_decap_8
XFILLER_28_142 vpwr vgnd scs8hd_fill_2
XANTENNA_mux_right_track_8.mux_l2_in_0_.TGATE_1_.scs8hd_ebufn_2_A mux_right_track_8.mux_l2_in_0_.TGATE_1_.scs8hd_ebufn_2/A
+ vgnd vpwr scs8hd_diode_2
XFILLER_6_15 vgnd vpwr scs8hd_decap_12
XFILLER_13_6 vpwr vgnd scs8hd_fill_2
XFILLER_20_7 vgnd vpwr scs8hd_fill_1
XFILLER_34_178 vgnd vpwr scs8hd_decap_12
XANTENNA__157__A _108_/A vgnd vpwr scs8hd_diode_2
XFILLER_19_175 vpwr vgnd scs8hd_fill_2
Xmux_top_track_2.INVTX1_0_.scs8hd_inv_1 top_right_grid_pin_11_ mux_top_track_2.INVTX1_0_.scs8hd_inv_1/Y
+ vgnd vpwr scs8hd_inv_1
XANTENNA_mux_right_track_16.mux_l1_in_2_.TGATE_0_.scs8hd_ebufn_2_A mux_right_track_16.INVTX1_6_.scs8hd_inv_1/Y
+ vgnd vpwr scs8hd_diode_2
XFILLER_25_123 vpwr vgnd scs8hd_fill_2
XFILLER_25_101 vpwr vgnd scs8hd_fill_2
XFILLER_25_134 vpwr vgnd scs8hd_fill_2
XANTENNA__067__A address[1] vgnd vpwr scs8hd_diode_2
XFILLER_0_211 vgnd vpwr scs8hd_decap_6
XFILLER_16_167 vpwr vgnd scs8hd_fill_2
XFILLER_31_159 vpwr vgnd scs8hd_fill_2
XPHY_195 vgnd vpwr scs8hd_tapvpwrvgnd_1
XANTENNA__127__D _135_/D vgnd vpwr scs8hd_diode_2
XPHY_140 vgnd vpwr scs8hd_tapvpwrvgnd_1
XPHY_151 vgnd vpwr scs8hd_tapvpwrvgnd_1
XPHY_162 vgnd vpwr scs8hd_tapvpwrvgnd_1
XPHY_173 vgnd vpwr scs8hd_tapvpwrvgnd_1
XPHY_184 vgnd vpwr scs8hd_tapvpwrvgnd_1
XFILLER_39_259 vpwr vgnd scs8hd_fill_2
XFILLER_11_3 vpwr vgnd scs8hd_fill_2
XFILLER_22_104 vpwr vgnd scs8hd_fill_2
XANTENNA_mux_left_track_17.mux_l1_in_0_.TGATE_1_.scs8hd_ebufn_2_TEB mem_left_track_17.LATCH_1_.latch/Q
+ vgnd vpwr scs8hd_diode_2
Xmem_left_track_1.LATCH_1_.latch data_in mem_left_track_1.LATCH_1_.latch/Q _125_/Y
+ vgnd vpwr scs8hd_lpflow_inputisolatch_1
XFILLER_26_45 vgnd vpwr scs8hd_decap_8
XFILLER_26_23 vgnd vpwr scs8hd_decap_3
XFILLER_42_44 vgnd vpwr scs8hd_decap_12
XFILLER_9_119 vgnd vpwr scs8hd_decap_3
XFILLER_3_27 vgnd vpwr scs8hd_decap_12
XANTENNA__154__B _157_/B vgnd vpwr scs8hd_diode_2
XANTENNA__170__A _087_/B vgnd vpwr scs8hd_diode_2
XFILLER_27_229 vpwr vgnd scs8hd_fill_2
Xmem_right_track_16.LATCH_2_.latch data_in mem_right_track_16.LATCH_2_.latch/Q _114_/Y
+ vgnd vpwr scs8hd_lpflow_inputisolatch_1
XFILLER_10_107 vpwr vgnd scs8hd_fill_2
XANTENNA__080__A _090_/A vgnd vpwr scs8hd_diode_2
XFILLER_37_55 vgnd vpwr scs8hd_decap_6
XANTENNA_mem_top_track_16.LATCH_4_.latch_D data_in vgnd vpwr scs8hd_diode_2
XFILLER_18_229 vgnd vpwr scs8hd_decap_4
XFILLER_41_232 vgnd vpwr scs8hd_decap_12
XFILLER_5_133 vpwr vgnd scs8hd_fill_2
XANTENNA__149__B address[6] vgnd vpwr scs8hd_diode_2
XFILLER_17_262 vgnd vpwr scs8hd_decap_4
XFILLER_17_273 vgnd vpwr scs8hd_decap_4
XFILLER_32_276 vgnd vpwr scs8hd_fill_1
XANTENNA__165__A address[4] vgnd vpwr scs8hd_diode_2
XFILLER_23_265 vpwr vgnd scs8hd_fill_2
XFILLER_23_254 vpwr vgnd scs8hd_fill_2
XANTENNA_mem_top_track_8.LATCH_0_.latch_D data_in vgnd vpwr scs8hd_diode_2
XANTENNA__075__A _074_/X vgnd vpwr scs8hd_diode_2
XFILLER_23_57 vpwr vgnd scs8hd_fill_2
XFILLER_14_243 vpwr vgnd scs8hd_fill_2
XFILLER_14_254 vgnd vpwr scs8hd_decap_8
XFILLER_14_265 vgnd vpwr scs8hd_decap_8
XFILLER_14_276 vgnd vpwr scs8hd_fill_1
X_187_ chanx_right_in[4] chanx_left_out[5] vgnd vpwr scs8hd_buf_2
XANTENNA__135__D _135_/D vgnd vpwr scs8hd_diode_2
Xmux_left_track_9.INVTX1_0_.scs8hd_inv_1 chany_top_in[2] mux_left_track_9.INVTX1_0_.scs8hd_inv_1/Y
+ vgnd vpwr scs8hd_inv_1
XFILLER_20_224 vpwr vgnd scs8hd_fill_2
Xmux_right_track_8.mux_l1_in_0_.TGATE_1_.scs8hd_ebufn_2 mux_right_track_8.INVTX1_1_.scs8hd_inv_1/Y
+ mem_right_track_8.LATCH_1_.latch/Q mux_right_track_8.mux_l2_in_0_.TGATE_0_.scs8hd_ebufn_2/A
+ vgnd vpwr scs8hd_ebufn_2
XANTENNA_mux_right_track_0.mux_l1_in_2_.TGATE_0_.scs8hd_ebufn_2_A mux_right_track_0.INVTX1_6_.scs8hd_inv_1/Y
+ vgnd vpwr scs8hd_diode_2
XFILLER_18_68 vgnd vpwr scs8hd_decap_4
XFILLER_34_56 vgnd vpwr scs8hd_decap_12
X_110_ _110_/A _112_/B vgnd vpwr scs8hd_buf_1
XFILLER_7_228 vgnd vpwr scs8hd_decap_12
XANTENNA_mux_left_track_17.mux_l1_in_1_.TGATE_0_.scs8hd_ebufn_2_A mux_left_track_17.INVTX1_3_.scs8hd_inv_1/Y
+ vgnd vpwr scs8hd_diode_2
XFILLER_41_3 vgnd vpwr scs8hd_decap_12
XANTENNA__162__B _159_/B vgnd vpwr scs8hd_diode_2
XFILLER_37_121 vgnd vpwr scs8hd_fill_1
XFILLER_37_110 vgnd vpwr scs8hd_decap_3
XANTENNA_mux_top_track_16.tap_buf4_0_.scs8hd_inv_1_A mux_top_track_16.tap_buf4_0_.scs8hd_inv_1/A
+ vgnd vpwr scs8hd_diode_2
XFILLER_28_187 vpwr vgnd scs8hd_fill_2
XFILLER_28_154 vgnd vpwr scs8hd_fill_1
XFILLER_28_121 vpwr vgnd scs8hd_fill_2
XFILLER_6_27 vgnd vpwr scs8hd_decap_4
XFILLER_3_220 vgnd vpwr scs8hd_decap_4
XFILLER_19_132 vgnd vpwr scs8hd_decap_4
XANTENNA__157__B _157_/B vgnd vpwr scs8hd_diode_2
XFILLER_25_146 vgnd vpwr scs8hd_fill_1
XANTENNA_mem_left_track_9.LATCH_1_.latch_SLEEPB _133_/Y vgnd vpwr scs8hd_diode_2
XFILLER_40_105 vgnd vpwr scs8hd_decap_12
XANTENNA__067__B _067_/B vgnd vpwr scs8hd_diode_2
XANTENNA__083__A _082_/X vgnd vpwr scs8hd_diode_2
XFILLER_15_25 vgnd vpwr scs8hd_fill_1
XFILLER_31_79 vpwr vgnd scs8hd_fill_2
XFILLER_31_138 vgnd vpwr scs8hd_decap_4
XPHY_130 vgnd vpwr scs8hd_tapvpwrvgnd_1
XPHY_141 vgnd vpwr scs8hd_tapvpwrvgnd_1
XPHY_152 vgnd vpwr scs8hd_tapvpwrvgnd_1
XFILLER_16_113 vgnd vpwr scs8hd_fill_1
XANTENNA_mem_left_track_17.LATCH_1_.latch_D data_in vgnd vpwr scs8hd_diode_2
XPHY_196 vgnd vpwr scs8hd_tapvpwrvgnd_1
XPHY_163 vgnd vpwr scs8hd_tapvpwrvgnd_1
XPHY_174 vgnd vpwr scs8hd_tapvpwrvgnd_1
XPHY_185 vgnd vpwr scs8hd_tapvpwrvgnd_1
XFILLER_39_249 vgnd vpwr scs8hd_decap_4
XANTENNA__168__A _080_/B vgnd vpwr scs8hd_diode_2
XFILLER_15_190 vpwr vgnd scs8hd_fill_2
XFILLER_22_127 vpwr vgnd scs8hd_fill_2
Xmux_left_track_1.mux_l1_in_0_.TGATE_0_.scs8hd_ebufn_2 mux_left_track_1.INVTX1_0_.scs8hd_inv_1/Y
+ mem_left_track_1.LATCH_0_.latch/Q mux_left_track_1.mux_l1_in_0_.TGATE_2_.scs8hd_ebufn_2/Z
+ vgnd vpwr scs8hd_ebufn_2
XANTENNA_mux_left_track_17.INVTX1_0_.scs8hd_inv_1_A chany_top_in[1] vgnd vpwr scs8hd_diode_2
Xmux_top_track_0.INVTX1_0_.scs8hd_inv_1 top_left_grid_pin_13_ mux_top_track_0.INVTX1_0_.scs8hd_inv_1/Y
+ vgnd vpwr scs8hd_inv_1
XFILLER_38_271 vgnd vpwr scs8hd_decap_4
XANTENNA__078__A address[1] vgnd vpwr scs8hd_diode_2
XFILLER_42_56 vgnd vpwr scs8hd_decap_6
XFILLER_21_182 vgnd vpwr scs8hd_fill_1
Xmux_left_track_17.mux_l1_in_1_.TGATE_0_.scs8hd_ebufn_2 mux_left_track_17.INVTX1_3_.scs8hd_inv_1/Y
+ mem_left_track_17.LATCH_0_.latch/Q mux_left_track_17.mux_l2_in_0_.TGATE_1_.scs8hd_ebufn_2/A
+ vgnd vpwr scs8hd_ebufn_2
XFILLER_3_39 vgnd vpwr scs8hd_decap_12
XFILLER_12_171 vgnd vpwr scs8hd_fill_1
XANTENNA__170__B _169_/B vgnd vpwr scs8hd_diode_2
XANTENNA_mux_left_track_17.mux_l1_in_1_.TGATE_0_.scs8hd_ebufn_2_TEB mem_left_track_17.LATCH_0_.latch/Q
+ vgnd vpwr scs8hd_diode_2
XFILLER_27_208 vpwr vgnd scs8hd_fill_2
XFILLER_35_263 vgnd vpwr scs8hd_decap_12
XANTENNA_mux_top_track_16.INVTX1_2_.scs8hd_inv_1_A chanx_left_in[1] vgnd vpwr scs8hd_diode_2
XANTENNA_mux_right_track_8.mux_l1_in_1_.TGATE_1_.scs8hd_ebufn_2_A mux_right_track_8.INVTX1_4_.scs8hd_inv_1/Y
+ vgnd vpwr scs8hd_diode_2
XANTENNA__080__B _080_/B vgnd vpwr scs8hd_diode_2
Xmux_right_track_8.INVTX1_1_.scs8hd_inv_1 chany_top_in[3] mux_right_track_8.INVTX1_1_.scs8hd_inv_1/Y
+ vgnd vpwr scs8hd_inv_1
XFILLER_26_263 vgnd vpwr scs8hd_decap_12
XFILLER_26_252 vgnd vpwr scs8hd_decap_8
XFILLER_26_241 vgnd vpwr scs8hd_decap_4
Xmem_right_track_0.LATCH_1_.latch data_in mem_right_track_0.LATCH_1_.latch/Q _090_/Y
+ vgnd vpwr scs8hd_lpflow_inputisolatch_1
Xmux_right_track_16.mux_l1_in_0_.TGATE_1_.scs8hd_ebufn_2 mux_right_track_16.INVTX1_1_.scs8hd_inv_1/Y
+ mem_right_track_16.LATCH_1_.latch/Q mux_right_track_16.mux_l1_in_0_.TGATE_0_.scs8hd_ebufn_2/Z
+ vgnd vpwr scs8hd_ebufn_2
Xmem_top_track_8.LATCH_1_.latch data_in _145_/A _161_/Y vgnd vpwr scs8hd_lpflow_inputisolatch_1
XFILLER_5_178 vgnd vpwr scs8hd_decap_4
XFILLER_5_123 vgnd vpwr scs8hd_decap_8
XANTENNA_mux_right_track_8.mux_l1_in_2_.TGATE_2_.scs8hd_ebufn_2_TEB mem_right_track_8.LATCH_2_.latch/Q
+ vgnd vpwr scs8hd_diode_2
XANTENNA__149__C address[5] vgnd vpwr scs8hd_diode_2
XANTENNA_mux_right_track_0.mux_l1_in_1_.TGATE_2_.scs8hd_ebufn_2_TEB mem_right_track_0.LATCH_2_.latch/Q
+ vgnd vpwr scs8hd_diode_2
Xmux_top_track_0.mux_l1_in_0_.TGATE_1_.scs8hd_ebufn_2 mux_top_track_0.INVTX1_1_.scs8hd_inv_1/Y
+ mem_top_track_0.LATCH_1_.latch/Q mux_top_track_0.mux_l1_in_0_.TGATE_0_.scs8hd_ebufn_2/Z
+ vgnd vpwr scs8hd_ebufn_2
XANTENNA__165__B address[3] vgnd vpwr scs8hd_diode_2
XFILLER_4_93 vgnd vpwr scs8hd_decap_8
XFILLER_23_14 vpwr vgnd scs8hd_fill_2
XFILLER_23_25 vpwr vgnd scs8hd_fill_2
XANTENNA__091__A address[1] vgnd vpwr scs8hd_diode_2
XFILLER_9_16 vgnd vpwr scs8hd_decap_12
X_186_ chanx_right_in[5] chanx_left_out[6] vgnd vpwr scs8hd_buf_2