* NGSPICE file created from sb_1__2_.ext - technology: EFS8A

* Black-box entry subcircuit for scs8hd_dfxbp_1 abstract view
.subckt scs8hd_dfxbp_1 CLK D Q QN vgnd vpwr
.ends

* Black-box entry subcircuit for scs8hd_fill_1 abstract view
.subckt scs8hd_fill_1 vgnd vpwr
.ends

* Black-box entry subcircuit for scs8hd_decap_3 abstract view
.subckt scs8hd_decap_3 vgnd vpwr
.ends

* Black-box entry subcircuit for scs8hd_buf_1 abstract view
.subckt scs8hd_buf_1 A X vgnd vpwr
.ends

* Black-box entry subcircuit for scs8hd_fill_2 abstract view
.subckt scs8hd_fill_2 vpwr vgnd
.ends

* Black-box entry subcircuit for scs8hd_mux2_1 abstract view
.subckt scs8hd_mux2_1 A0 A1 S X vgnd vpwr
.ends

* Black-box entry subcircuit for scs8hd_diode_2 abstract view
.subckt scs8hd_diode_2 DIODE vgnd vpwr
.ends

* Black-box entry subcircuit for scs8hd_decap_4 abstract view
.subckt scs8hd_decap_4 vgnd vpwr
.ends

* Black-box entry subcircuit for scs8hd_decap_12 abstract view
.subckt scs8hd_decap_12 vgnd vpwr
.ends

* Black-box entry subcircuit for scs8hd_conb_1 abstract view
.subckt scs8hd_conb_1 HI LO vgnd vpwr
.ends

* Black-box entry subcircuit for scs8hd_buf_2 abstract view
.subckt scs8hd_buf_2 A X vgnd vpwr
.ends

* Black-box entry subcircuit for scs8hd_decap_8 abstract view
.subckt scs8hd_decap_8 vgnd vpwr
.ends

* Black-box entry subcircuit for scs8hd_decap_6 abstract view
.subckt scs8hd_decap_6 vgnd vpwr
.ends

* Black-box entry subcircuit for scs8hd_tapvpwrvgnd_1 abstract view
.subckt scs8hd_tapvpwrvgnd_1 vgnd vpwr
.ends

.subckt sb_1__2_ bottom_left_grid_pin_34_ bottom_left_grid_pin_35_ bottom_left_grid_pin_36_
+ bottom_left_grid_pin_37_ bottom_left_grid_pin_38_ bottom_left_grid_pin_39_ bottom_left_grid_pin_40_
+ bottom_left_grid_pin_41_ ccff_head ccff_tail chanx_left_in[0] chanx_left_in[10]
+ chanx_left_in[11] chanx_left_in[12] chanx_left_in[13] chanx_left_in[14] chanx_left_in[15]
+ chanx_left_in[16] chanx_left_in[17] chanx_left_in[18] chanx_left_in[19] chanx_left_in[1]
+ chanx_left_in[2] chanx_left_in[3] chanx_left_in[4] chanx_left_in[5] chanx_left_in[6]
+ chanx_left_in[7] chanx_left_in[8] chanx_left_in[9] chanx_left_out[0] chanx_left_out[10]
+ chanx_left_out[11] chanx_left_out[12] chanx_left_out[13] chanx_left_out[14] chanx_left_out[15]
+ chanx_left_out[16] chanx_left_out[17] chanx_left_out[18] chanx_left_out[19] chanx_left_out[1]
+ chanx_left_out[2] chanx_left_out[3] chanx_left_out[4] chanx_left_out[5] chanx_left_out[6]
+ chanx_left_out[7] chanx_left_out[8] chanx_left_out[9] chanx_right_in[0] chanx_right_in[10]
+ chanx_right_in[11] chanx_right_in[12] chanx_right_in[13] chanx_right_in[14] chanx_right_in[15]
+ chanx_right_in[16] chanx_right_in[17] chanx_right_in[18] chanx_right_in[19] chanx_right_in[1]
+ chanx_right_in[2] chanx_right_in[3] chanx_right_in[4] chanx_right_in[5] chanx_right_in[6]
+ chanx_right_in[7] chanx_right_in[8] chanx_right_in[9] chanx_right_out[0] chanx_right_out[10]
+ chanx_right_out[11] chanx_right_out[12] chanx_right_out[13] chanx_right_out[14]
+ chanx_right_out[15] chanx_right_out[16] chanx_right_out[17] chanx_right_out[18]
+ chanx_right_out[19] chanx_right_out[1] chanx_right_out[2] chanx_right_out[3] chanx_right_out[4]
+ chanx_right_out[5] chanx_right_out[6] chanx_right_out[7] chanx_right_out[8] chanx_right_out[9]
+ chany_bottom_in[0] chany_bottom_in[10] chany_bottom_in[11] chany_bottom_in[12] chany_bottom_in[13]
+ chany_bottom_in[14] chany_bottom_in[15] chany_bottom_in[16] chany_bottom_in[17]
+ chany_bottom_in[18] chany_bottom_in[19] chany_bottom_in[1] chany_bottom_in[2] chany_bottom_in[3]
+ chany_bottom_in[4] chany_bottom_in[5] chany_bottom_in[6] chany_bottom_in[7] chany_bottom_in[8]
+ chany_bottom_in[9] chany_bottom_out[0] chany_bottom_out[10] chany_bottom_out[11]
+ chany_bottom_out[12] chany_bottom_out[13] chany_bottom_out[14] chany_bottom_out[15]
+ chany_bottom_out[16] chany_bottom_out[17] chany_bottom_out[18] chany_bottom_out[19]
+ chany_bottom_out[1] chany_bottom_out[2] chany_bottom_out[3] chany_bottom_out[4]
+ chany_bottom_out[5] chany_bottom_out[6] chany_bottom_out[7] chany_bottom_out[8]
+ chany_bottom_out[9] left_top_grid_pin_1_ prog_clk right_top_grid_pin_1_ vpwr vgnd
Xmem_bottom_track_39.scs8hd_dfxbp_1_1_ prog_clk mux_bottom_track_39.mux_l1_in_0_/S
+ mux_bottom_track_39.mux_l2_in_0_/S mem_bottom_track_39.scs8hd_dfxbp_1_1_/QN vgnd
+ vpwr scs8hd_dfxbp_1
XFILLER_22_133 vgnd vpwr scs8hd_fill_1
XFILLER_26_85 vgnd vpwr scs8hd_decap_3
Xmux_bottom_track_25.scs8hd_buf_4_0_ mux_bottom_track_25.mux_l3_in_0_/X _115_/A vgnd
+ vpwr scs8hd_buf_1
XFILLER_3_34 vpwr vgnd scs8hd_fill_2
Xmux_bottom_track_3.mux_l1_in_1_ bottom_left_grid_pin_39_ bottom_left_grid_pin_37_
+ mux_bottom_track_3.mux_l1_in_1_/S mux_bottom_track_3.mux_l1_in_1_/X vgnd vpwr scs8hd_mux2_1
XANTENNA_mux_right_track_2.mux_l3_in_0__A0 mux_right_track_2.mux_l2_in_1_/X vgnd vpwr
+ scs8hd_diode_2
XFILLER_3_67 vpwr vgnd scs8hd_fill_2
XFILLER_8_181 vgnd vpwr scs8hd_decap_3
XANTENNA_mux_left_track_25.mux_l3_in_0__A1 mux_left_track_25.mux_l2_in_0_/X vgnd vpwr
+ scs8hd_diode_2
XANTENNA_mux_bottom_track_11.mux_l1_in_0__A0 bottom_left_grid_pin_35_ vgnd vpwr scs8hd_diode_2
XFILLER_6_107 vpwr vgnd scs8hd_fill_2
XFILLER_6_118 vgnd vpwr scs8hd_decap_4
XFILLER_10_158 vgnd vpwr scs8hd_decap_3
XFILLER_12_10 vpwr vgnd scs8hd_fill_2
XANTENNA_mem_bottom_track_19.scs8hd_dfxbp_1_1__CLK prog_clk vgnd vpwr scs8hd_diode_2
XFILLER_12_87 vpwr vgnd scs8hd_fill_2
XFILLER_37_62 vgnd vpwr scs8hd_decap_12
XANTENNA__124__A _124_/A vgnd vpwr scs8hd_diode_2
XANTENNA_mux_right_track_4.mux_l1_in_0__A1 right_top_grid_pin_1_ vgnd vpwr scs8hd_diode_2
XFILLER_23_20 vgnd vpwr scs8hd_decap_4
XFILLER_23_97 vpwr vgnd scs8hd_fill_2
X_062_ _062_/HI _062_/LO vgnd vpwr scs8hd_conb_1
XFILLER_2_132 vgnd vpwr scs8hd_fill_1
XANTENNA_mux_bottom_track_3.mux_l1_in_3__S mux_bottom_track_3.mux_l1_in_1_/S vgnd
+ vpwr scs8hd_diode_2
XANTENNA_mux_bottom_track_1.mux_l3_in_0__S mux_bottom_track_1.mux_l3_in_0_/S vgnd
+ vpwr scs8hd_diode_2
XANTENNA__119__A _119_/A vgnd vpwr scs8hd_diode_2
XANTENNA_mem_bottom_track_23.scs8hd_dfxbp_1_0__D mux_bottom_track_21.mux_l2_in_0_/S
+ vgnd vpwr scs8hd_diode_2
XANTENNA_mem_left_track_5.scs8hd_dfxbp_1_1__CLK prog_clk vgnd vpwr scs8hd_diode_2
XANTENNA_mux_bottom_track_7.mux_l2_in_1__S mux_bottom_track_7.mux_l2_in_1_/S vgnd
+ vpwr scs8hd_diode_2
XANTENNA_mem_bottom_track_5.scs8hd_dfxbp_1_2__D mux_bottom_track_5.mux_l2_in_0_/S
+ vgnd vpwr scs8hd_diode_2
Xmem_left_track_1.scs8hd_dfxbp_1_2_ prog_clk mux_left_track_1.mux_l2_in_1_/S mux_left_track_1.mux_l3_in_0_/S
+ mem_left_track_1.scs8hd_dfxbp_1_2_/QN vgnd vpwr scs8hd_dfxbp_1
XFILLER_18_97 vgnd vpwr scs8hd_decap_4
XFILLER_11_231 vgnd vpwr scs8hd_decap_3
X_045_ _045_/HI _045_/LO vgnd vpwr scs8hd_conb_1
XFILLER_7_224 vgnd vpwr scs8hd_fill_1
X_114_ _114_/A chany_bottom_out[13] vgnd vpwr scs8hd_buf_2
XFILLER_38_117 vgnd vpwr scs8hd_decap_12
XFILLER_22_7 vgnd vpwr scs8hd_decap_8
XANTENNA_mux_bottom_track_25.mux_l3_in_0__S mux_bottom_track_25.mux_l3_in_0_/S vgnd
+ vpwr scs8hd_diode_2
Xmux_bottom_track_17.mux_l1_in_0_ bottom_left_grid_pin_38_ chanx_right_in[13] mux_bottom_track_17.mux_l1_in_1_/S
+ mux_bottom_track_17.mux_l1_in_0_/X vgnd vpwr scs8hd_mux2_1
XANTENNA_mux_left_track_33.mux_l2_in_1__A1 chany_bottom_in[19] vgnd vpwr scs8hd_diode_2
XFILLER_20_65 vpwr vgnd scs8hd_fill_2
XFILLER_20_32 vpwr vgnd scs8hd_fill_2
XANTENNA_mux_left_track_17.mux_l2_in_0__S mux_left_track_17.mux_l2_in_1_/S vgnd vpwr
+ scs8hd_diode_2
XFILLER_29_74 vgnd vpwr scs8hd_decap_12
XANTENNA_mem_right_track_16.scs8hd_dfxbp_1_2__D mux_right_track_16.mux_l2_in_1_/S
+ vgnd vpwr scs8hd_diode_2
Xmux_bottom_track_29.mux_l2_in_0_ _065_/HI mux_bottom_track_29.mux_l1_in_0_/X mux_bottom_track_29.mux_l2_in_0_/S
+ mux_bottom_track_29.mux_l2_in_0_/X vgnd vpwr scs8hd_mux2_1
Xmem_bottom_track_13.scs8hd_dfxbp_1_0_ prog_clk mux_bottom_track_11.mux_l3_in_0_/S
+ mux_bottom_track_13.mux_l1_in_1_/S mem_bottom_track_13.scs8hd_dfxbp_1_0_/QN vgnd
+ vpwr scs8hd_dfxbp_1
XFILLER_3_271 vgnd vpwr scs8hd_decap_6
XFILLER_6_45 vpwr vgnd scs8hd_fill_2
XANTENNA_mux_right_track_16.mux_l3_in_0__S mux_right_track_16.mux_l3_in_0_/S vgnd
+ vpwr scs8hd_diode_2
XANTENNA_mux_left_track_33.scs8hd_buf_4_0__A mux_left_track_33.mux_l3_in_0_/X vgnd
+ vpwr scs8hd_diode_2
XANTENNA_mux_right_track_0.mux_l1_in_1__S mux_right_track_0.mux_l1_in_1_/S vgnd vpwr
+ scs8hd_diode_2
XFILLER_19_161 vpwr vgnd scs8hd_fill_2
XANTENNA_mux_bottom_track_19.mux_l2_in_0__S mux_bottom_track_19.mux_l2_in_0_/S vgnd
+ vpwr scs8hd_diode_2
XANTENNA_mux_right_track_2.mux_l2_in_1__A1 chanx_left_in[13] vgnd vpwr scs8hd_diode_2
Xmux_bottom_track_31.mux_l2_in_0_ _067_/HI mux_bottom_track_31.mux_l1_in_0_/X mux_bottom_track_31.mux_l2_in_0_/S
+ mux_bottom_track_31.mux_l2_in_0_/X vgnd vpwr scs8hd_mux2_1
Xmux_bottom_track_33.scs8hd_buf_4_0_ mux_bottom_track_33.mux_l2_in_0_/X _111_/A vgnd
+ vpwr scs8hd_buf_1
XFILLER_1_208 vpwr vgnd scs8hd_fill_2
XFILLER_25_142 vpwr vgnd scs8hd_fill_2
XFILLER_40_178 vgnd vpwr scs8hd_decap_12
XFILLER_31_53 vgnd vpwr scs8hd_decap_8
XFILLER_31_86 vgnd vpwr scs8hd_decap_12
XFILLER_0_241 vgnd vpwr scs8hd_fill_1
XANTENNA_mux_bottom_track_3.mux_l1_in_1__A0 bottom_left_grid_pin_39_ vgnd vpwr scs8hd_diode_2
XFILLER_31_123 vgnd vpwr scs8hd_decap_8
XANTENNA__127__A _127_/A vgnd vpwr scs8hd_diode_2
XPHY_170 vgnd vpwr scs8hd_tapvpwrvgnd_1
XANTENNA_mux_left_track_33.mux_l3_in_0__A1 mux_left_track_33.mux_l2_in_0_/X vgnd vpwr
+ scs8hd_diode_2
XPHY_192 vgnd vpwr scs8hd_tapvpwrvgnd_1
XPHY_181 vgnd vpwr scs8hd_tapvpwrvgnd_1
XFILLER_39_245 vgnd vpwr scs8hd_decap_12
Xmem_bottom_track_39.scs8hd_dfxbp_1_0_ prog_clk mux_bottom_track_37.mux_l2_in_0_/S
+ mux_bottom_track_39.mux_l1_in_0_/S mem_bottom_track_39.scs8hd_dfxbp_1_0_/QN vgnd
+ vpwr scs8hd_dfxbp_1
XFILLER_22_167 vpwr vgnd scs8hd_fill_2
XFILLER_22_145 vpwr vgnd scs8hd_fill_2
XFILLER_22_112 vpwr vgnd scs8hd_fill_2
XANTENNA_mem_bottom_track_21.scs8hd_dfxbp_1_1__CLK prog_clk vgnd vpwr scs8hd_diode_2
Xmem_right_track_2.scs8hd_dfxbp_1_2_ prog_clk mux_right_track_2.mux_l2_in_1_/S mux_right_track_2.mux_l3_in_0_/S
+ mem_right_track_2.scs8hd_dfxbp_1_2_/QN vgnd vpwr scs8hd_dfxbp_1
XANTENNA_mux_bottom_track_27.scs8hd_buf_4_0__A mux_bottom_track_27.mux_l2_in_0_/X
+ vgnd vpwr scs8hd_diode_2
XFILLER_9_116 vpwr vgnd scs8hd_fill_2
XFILLER_42_63 vgnd vpwr scs8hd_decap_12
Xmux_bottom_track_3.mux_l1_in_0_ bottom_left_grid_pin_35_ chanx_right_in[4] mux_bottom_track_3.mux_l1_in_1_/S
+ mux_bottom_track_3.mux_l1_in_0_/X vgnd vpwr scs8hd_mux2_1
XFILLER_36_259 vgnd vpwr scs8hd_decap_12
XFILLER_36_215 vgnd vpwr scs8hd_decap_12
XANTENNA_mux_right_track_2.mux_l3_in_0__A1 mux_right_track_2.mux_l2_in_0_/X vgnd vpwr
+ scs8hd_diode_2
XANTENNA_mux_bottom_track_1.mux_l1_in_3__A0 _055_/HI vgnd vpwr scs8hd_diode_2
XANTENNA_mux_bottom_track_11.mux_l1_in_0__A1 chanx_right_in[9] vgnd vpwr scs8hd_diode_2
XFILLER_42_218 vgnd vpwr scs8hd_decap_12
XFILLER_27_259 vpwr vgnd scs8hd_fill_2
XANTENNA_mux_bottom_track_3.mux_l2_in_0__A0 mux_bottom_track_3.mux_l1_in_1_/X vgnd
+ vpwr scs8hd_diode_2
XANTENNA_mux_bottom_track_39.mux_l2_in_0__A0 _037_/HI vgnd vpwr scs8hd_diode_2
XFILLER_12_55 vgnd vpwr scs8hd_decap_4
XANTENNA_mem_bottom_track_7.scs8hd_dfxbp_1_1__D mux_bottom_track_7.mux_l1_in_2_/S
+ vgnd vpwr scs8hd_diode_2
XFILLER_37_74 vgnd vpwr scs8hd_decap_12
XFILLER_18_259 vgnd vpwr scs8hd_decap_12
XFILLER_32_251 vgnd vpwr scs8hd_decap_12
XFILLER_15_229 vgnd vpwr scs8hd_decap_3
X_061_ _061_/HI _061_/LO vgnd vpwr scs8hd_conb_1
XFILLER_0_58 vpwr vgnd scs8hd_fill_2
XFILLER_9_34 vpwr vgnd scs8hd_fill_2
XFILLER_20_276 vgnd vpwr scs8hd_fill_1
XFILLER_18_10 vpwr vgnd scs8hd_fill_2
Xmem_left_track_1.scs8hd_dfxbp_1_1_ prog_clk mux_left_track_1.mux_l1_in_1_/S mux_left_track_1.mux_l2_in_1_/S
+ mem_left_track_1.scs8hd_dfxbp_1_1_/QN vgnd vpwr scs8hd_dfxbp_1
XFILLER_18_32 vpwr vgnd scs8hd_fill_2
XFILLER_18_54 vpwr vgnd scs8hd_fill_2
X_113_ _113_/A chany_bottom_out[14] vgnd vpwr scs8hd_buf_2
XFILLER_7_236 vpwr vgnd scs8hd_fill_2
XFILLER_7_269 vgnd vpwr scs8hd_decap_8
X_044_ _044_/HI _044_/LO vgnd vpwr scs8hd_conb_1
XFILLER_38_129 vgnd vpwr scs8hd_decap_12
XFILLER_15_7 vpwr vgnd scs8hd_fill_2
Xmem_bottom_track_3.scs8hd_dfxbp_1_2_ prog_clk mux_bottom_track_3.mux_l2_in_0_/S mux_bottom_track_3.mux_l3_in_0_/S
+ mem_bottom_track_3.scs8hd_dfxbp_1_2_/QN vgnd vpwr scs8hd_dfxbp_1
XANTENNA_mux_left_track_5.mux_l3_in_0__S mux_left_track_5.mux_l3_in_0_/S vgnd vpwr
+ scs8hd_diode_2
XFILLER_29_118 vpwr vgnd scs8hd_fill_2
XFILLER_37_184 vgnd vpwr scs8hd_decap_12
XANTENNA_mux_right_track_8.mux_l3_in_0__S mux_right_track_8.mux_l3_in_0_/S vgnd vpwr
+ scs8hd_diode_2
XFILLER_20_11 vpwr vgnd scs8hd_fill_2
XFILLER_4_206 vgnd vpwr scs8hd_decap_4
XFILLER_29_86 vgnd vpwr scs8hd_decap_12
XFILLER_6_68 vgnd vpwr scs8hd_fill_1
XFILLER_19_151 vgnd vpwr scs8hd_decap_4
XANTENNA_mem_bottom_track_35.scs8hd_dfxbp_1_0__CLK prog_clk vgnd vpwr scs8hd_diode_2
XFILLER_34_154 vgnd vpwr scs8hd_decap_12
XANTENNA_mem_bottom_track_25.scs8hd_dfxbp_1_2__D mux_bottom_track_25.mux_l2_in_1_/S
+ vgnd vpwr scs8hd_diode_2
XFILLER_25_187 vpwr vgnd scs8hd_fill_2
XFILLER_15_11 vgnd vpwr scs8hd_decap_3
XFILLER_31_98 vgnd vpwr scs8hd_decap_12
XFILLER_0_264 vgnd vpwr scs8hd_decap_12
XANTENNA_mem_bottom_track_9.scs8hd_dfxbp_1_0__D mux_bottom_track_7.mux_l3_in_0_/S
+ vgnd vpwr scs8hd_diode_2
XANTENNA_mux_bottom_track_3.mux_l1_in_1__A1 bottom_left_grid_pin_37_ vgnd vpwr scs8hd_diode_2
XPHY_193 vgnd vpwr scs8hd_tapvpwrvgnd_1
XPHY_182 vgnd vpwr scs8hd_tapvpwrvgnd_1
XPHY_160 vgnd vpwr scs8hd_tapvpwrvgnd_1
XPHY_171 vgnd vpwr scs8hd_tapvpwrvgnd_1
XFILLER_39_257 vgnd vpwr scs8hd_decap_12
XFILLER_30_190 vgnd vpwr scs8hd_decap_12
Xmux_bottom_track_29.mux_l1_in_0_ bottom_left_grid_pin_36_ chanx_right_in[11] mux_bottom_track_29.mux_l1_in_0_/S
+ mux_bottom_track_29.mux_l1_in_0_/X vgnd vpwr scs8hd_mux2_1
XFILLER_26_32 vgnd vpwr scs8hd_decap_12
Xmem_right_track_2.scs8hd_dfxbp_1_1_ prog_clk mux_right_track_2.mux_l1_in_1_/S mux_right_track_2.mux_l2_in_1_/S
+ mem_right_track_2.scs8hd_dfxbp_1_1_/QN vgnd vpwr scs8hd_dfxbp_1
XFILLER_9_106 vgnd vpwr scs8hd_decap_3
XFILLER_13_179 vpwr vgnd scs8hd_fill_2
XFILLER_42_75 vgnd vpwr scs8hd_decap_12
XFILLER_36_227 vgnd vpwr scs8hd_decap_12
Xmux_bottom_track_31.mux_l1_in_0_ bottom_left_grid_pin_37_ chanx_right_in[7] mux_bottom_track_31.mux_l1_in_0_/S
+ mux_bottom_track_31.mux_l1_in_0_/X vgnd vpwr scs8hd_mux2_1
XANTENNA_mux_bottom_track_1.mux_l1_in_3__A1 chanx_left_in[2] vgnd vpwr scs8hd_diode_2
XFILLER_8_150 vgnd vpwr scs8hd_fill_1
XFILLER_10_105 vpwr vgnd scs8hd_fill_2
XANTENNA_mux_bottom_track_23.mux_l1_in_0__S mux_bottom_track_23.mux_l1_in_1_/S vgnd
+ vpwr scs8hd_diode_2
XANTENNA_mux_bottom_track_39.mux_l2_in_0__A1 mux_bottom_track_39.mux_l1_in_0_/X vgnd
+ vpwr scs8hd_diode_2
XANTENNA_mux_bottom_track_3.mux_l2_in_0__A1 mux_bottom_track_3.mux_l1_in_0_/X vgnd
+ vpwr scs8hd_diode_2
XFILLER_10_149 vpwr vgnd scs8hd_fill_2
XFILLER_12_23 vpwr vgnd scs8hd_fill_2
XFILLER_37_86 vgnd vpwr scs8hd_decap_12
XFILLER_37_31 vgnd vpwr scs8hd_decap_12
XFILLER_33_208 vgnd vpwr scs8hd_decap_12
XFILLER_26_271 vgnd vpwr scs8hd_decap_4
XFILLER_18_249 vgnd vpwr scs8hd_decap_6
XFILLER_5_131 vpwr vgnd scs8hd_fill_2
XFILLER_5_175 vpwr vgnd scs8hd_fill_2
XFILLER_32_263 vgnd vpwr scs8hd_decap_12
XANTENNA_mem_left_track_17.scs8hd_dfxbp_1_1__CLK prog_clk vgnd vpwr scs8hd_diode_2
XFILLER_15_208 vpwr vgnd scs8hd_fill_2
XFILLER_23_263 vgnd vpwr scs8hd_decap_12
XFILLER_23_66 vpwr vgnd scs8hd_fill_2
XFILLER_3_3 vgnd vpwr scs8hd_decap_4
X_060_ _060_/HI _060_/LO vgnd vpwr scs8hd_conb_1
XFILLER_2_167 vpwr vgnd scs8hd_fill_2
XFILLER_14_263 vgnd vpwr scs8hd_decap_12
XFILLER_9_57 vpwr vgnd scs8hd_fill_2
XFILLER_36_3 vgnd vpwr scs8hd_decap_12
Xmem_left_track_9.scs8hd_dfxbp_1_2_ prog_clk mux_left_track_9.mux_l2_in_1_/S mux_left_track_9.mux_l3_in_0_/S
+ mem_left_track_9.scs8hd_dfxbp_1_2_/QN vgnd vpwr scs8hd_dfxbp_1
XFILLER_20_200 vpwr vgnd scs8hd_fill_2
XANTENNA_mem_bottom_track_27.scs8hd_dfxbp_1_1__D mux_bottom_track_27.mux_l1_in_0_/S
+ vgnd vpwr scs8hd_diode_2
XFILLER_34_32 vgnd vpwr scs8hd_decap_12
Xmem_left_track_1.scs8hd_dfxbp_1_0_ prog_clk mux_bottom_track_39.mux_l2_in_0_/S mux_left_track_1.mux_l1_in_1_/S
+ mem_left_track_1.scs8hd_dfxbp_1_0_/QN vgnd vpwr scs8hd_dfxbp_1
X_043_ _043_/HI _043_/LO vgnd vpwr scs8hd_conb_1
X_112_ _112_/A chany_bottom_out[15] vgnd vpwr scs8hd_buf_2
Xmem_bottom_track_3.scs8hd_dfxbp_1_1_ prog_clk mux_bottom_track_3.mux_l1_in_1_/S mux_bottom_track_3.mux_l2_in_0_/S
+ mem_bottom_track_3.scs8hd_dfxbp_1_1_/QN vgnd vpwr scs8hd_dfxbp_1
XFILLER_37_196 vgnd vpwr scs8hd_decap_12
XFILLER_20_23 vpwr vgnd scs8hd_fill_2
XFILLER_4_229 vpwr vgnd scs8hd_fill_2
XFILLER_28_152 vgnd vpwr scs8hd_fill_1
XANTENNA_mux_bottom_track_3.mux_l2_in_1__S mux_bottom_track_3.mux_l2_in_0_/S vgnd
+ vpwr scs8hd_diode_2
XFILLER_6_58 vgnd vpwr scs8hd_decap_4
XFILLER_3_240 vpwr vgnd scs8hd_fill_2
XFILLER_34_166 vgnd vpwr scs8hd_decap_12
XFILLER_19_174 vpwr vgnd scs8hd_fill_2
XFILLER_19_130 vpwr vgnd scs8hd_fill_2
XANTENNA_mem_right_track_0.scs8hd_dfxbp_1_2__D mux_right_track_0.mux_l2_in_0_/S vgnd
+ vpwr scs8hd_diode_2
XANTENNA_mux_bottom_track_13.mux_l1_in_1__A0 _057_/HI vgnd vpwr scs8hd_diode_2
XFILLER_15_56 vpwr vgnd scs8hd_fill_2
XFILLER_15_67 vpwr vgnd scs8hd_fill_2
XFILLER_31_11 vgnd vpwr scs8hd_decap_4
XANTENNA_mux_left_track_25.mux_l2_in_1__S mux_left_track_25.mux_l2_in_1_/S vgnd vpwr
+ scs8hd_diode_2
XFILLER_0_276 vgnd vpwr scs8hd_fill_1
XFILLER_0_210 vgnd vpwr scs8hd_fill_1
XFILLER_16_100 vpwr vgnd scs8hd_fill_2
XFILLER_16_144 vpwr vgnd scs8hd_fill_2
XPHY_194 vgnd vpwr scs8hd_tapvpwrvgnd_1
XPHY_183 vgnd vpwr scs8hd_tapvpwrvgnd_1
XPHY_150 vgnd vpwr scs8hd_tapvpwrvgnd_1
XPHY_161 vgnd vpwr scs8hd_tapvpwrvgnd_1
XFILLER_16_188 vgnd vpwr scs8hd_decap_3
XPHY_172 vgnd vpwr scs8hd_tapvpwrvgnd_1
XFILLER_39_269 vgnd vpwr scs8hd_decap_8
XFILLER_22_136 vpwr vgnd scs8hd_fill_2
XANTENNA_mux_bottom_track_15.mux_l2_in_0__S mux_bottom_track_15.mux_l2_in_0_/S vgnd
+ vpwr scs8hd_diode_2
XANTENNA_mem_bottom_track_15.scs8hd_dfxbp_1_0__CLK prog_clk vgnd vpwr scs8hd_diode_2
XFILLER_26_44 vgnd vpwr scs8hd_decap_12
Xmem_right_track_2.scs8hd_dfxbp_1_0_ prog_clk mux_right_track_0.mux_l3_in_0_/S mux_right_track_2.mux_l1_in_1_/S
+ mem_right_track_2.scs8hd_dfxbp_1_0_/QN vgnd vpwr scs8hd_dfxbp_1
XFILLER_42_87 vgnd vpwr scs8hd_decap_6
XFILLER_42_32 vgnd vpwr scs8hd_decap_12
XFILLER_26_99 vgnd vpwr scs8hd_fill_1
XFILLER_13_114 vpwr vgnd scs8hd_fill_2
XFILLER_13_136 vpwr vgnd scs8hd_fill_2
XFILLER_13_158 vpwr vgnd scs8hd_fill_2
XFILLER_3_59 vpwr vgnd scs8hd_fill_2
XANTENNA_mux_bottom_track_13.mux_l2_in_0__A0 mux_bottom_track_13.mux_l1_in_1_/X vgnd
+ vpwr scs8hd_diode_2
XFILLER_36_239 vgnd vpwr scs8hd_decap_12
Xmux_bottom_track_5.scs8hd_buf_4_0_ mux_bottom_track_5.mux_l3_in_0_/X _125_/A vgnd
+ vpwr scs8hd_buf_1
XANTENNA_mux_left_track_3.mux_l1_in_0__S mux_left_track_3.mux_l1_in_0_/S vgnd vpwr
+ scs8hd_diode_2
Xmem_bottom_track_21.scs8hd_dfxbp_1_1_ prog_clk mux_bottom_track_21.mux_l1_in_0_/S
+ mux_bottom_track_21.mux_l2_in_0_/S mem_bottom_track_21.scs8hd_dfxbp_1_1_/QN vgnd
+ vpwr scs8hd_dfxbp_1
XANTENNA_mem_bottom_track_29.scs8hd_dfxbp_1_0__D mux_bottom_track_27.mux_l2_in_0_/S
+ vgnd vpwr scs8hd_diode_2
XFILLER_10_128 vpwr vgnd scs8hd_fill_2
XFILLER_12_79 vpwr vgnd scs8hd_fill_2
XFILLER_18_206 vpwr vgnd scs8hd_fill_2
XFILLER_41_220 vgnd vpwr scs8hd_decap_12
XFILLER_37_98 vgnd vpwr scs8hd_decap_12
XFILLER_37_43 vgnd vpwr scs8hd_decap_12
XANTENNA_mem_left_track_3.scs8hd_dfxbp_1_2__CLK prog_clk vgnd vpwr scs8hd_diode_2
XFILLER_38_7 vgnd vpwr scs8hd_decap_12
XANTENNA_mem_left_track_1.scs8hd_dfxbp_1_0__CLK prog_clk vgnd vpwr scs8hd_diode_2
XFILLER_4_91 vgnd vpwr scs8hd_fill_1
XFILLER_23_231 vpwr vgnd scs8hd_fill_2
XFILLER_23_275 vpwr vgnd scs8hd_fill_2
XFILLER_23_56 vpwr vgnd scs8hd_fill_2
XFILLER_23_12 vpwr vgnd scs8hd_fill_2
XANTENNA_mux_bottom_track_7.mux_l1_in_0__A0 bottom_left_grid_pin_35_ vgnd vpwr scs8hd_diode_2
XFILLER_2_179 vgnd vpwr scs8hd_decap_3
XFILLER_2_146 vgnd vpwr scs8hd_fill_1
XFILLER_2_102 vpwr vgnd scs8hd_fill_2
XFILLER_0_27 vpwr vgnd scs8hd_fill_2
Xmem_left_track_9.scs8hd_dfxbp_1_1_ prog_clk mux_left_track_9.mux_l1_in_0_/S mux_left_track_9.mux_l2_in_1_/S
+ mem_left_track_9.scs8hd_dfxbp_1_1_/QN vgnd vpwr scs8hd_dfxbp_1
XANTENNA_mem_right_track_2.scs8hd_dfxbp_1_1__D mux_right_track_2.mux_l1_in_1_/S vgnd
+ vpwr scs8hd_diode_2
XFILLER_18_23 vpwr vgnd scs8hd_fill_2
XFILLER_34_44 vgnd vpwr scs8hd_decap_12
XANTENNA_mem_right_track_16.scs8hd_dfxbp_1_0__CLK prog_clk vgnd vpwr scs8hd_diode_2
XFILLER_18_89 vgnd vpwr scs8hd_decap_3
X_042_ _042_/HI _042_/LO vgnd vpwr scs8hd_conb_1
X_111_ _111_/A chany_bottom_out[16] vgnd vpwr scs8hd_buf_2
XANTENNA_mux_bottom_track_5.mux_l1_in_2__A0 chanx_left_in[5] vgnd vpwr scs8hd_diode_2
XFILLER_7_216 vpwr vgnd scs8hd_fill_2
XFILLER_11_245 vgnd vpwr scs8hd_decap_3
XANTENNA_mux_bottom_track_21.mux_l1_in_1__A0 _061_/HI vgnd vpwr scs8hd_diode_2
Xmux_right_track_8.mux_l3_in_0_ mux_right_track_8.mux_l2_in_1_/X mux_right_track_8.mux_l2_in_0_/X
+ mux_right_track_8.mux_l3_in_0_/S mux_right_track_8.mux_l3_in_0_/X vgnd vpwr scs8hd_mux2_1
Xmem_bottom_track_3.scs8hd_dfxbp_1_0_ prog_clk mux_bottom_track_1.mux_l3_in_0_/S mux_bottom_track_3.mux_l1_in_1_/S
+ mem_bottom_track_3.scs8hd_dfxbp_1_0_/QN vgnd vpwr scs8hd_dfxbp_1
XFILLER_29_109 vgnd vpwr scs8hd_decap_3
XANTENNA__072__A chanx_right_in[14] vgnd vpwr scs8hd_diode_2
XFILLER_29_11 vgnd vpwr scs8hd_decap_12
XFILLER_20_79 vpwr vgnd scs8hd_fill_2
XFILLER_28_131 vpwr vgnd scs8hd_fill_2
XFILLER_3_263 vpwr vgnd scs8hd_fill_2
XFILLER_3_230 vpwr vgnd scs8hd_fill_2
XFILLER_6_26 vpwr vgnd scs8hd_fill_2
XFILLER_20_7 vpwr vgnd scs8hd_fill_2
XFILLER_34_178 vgnd vpwr scs8hd_decap_12
XFILLER_19_197 vpwr vgnd scs8hd_fill_2
XANTENNA_mux_bottom_track_13.mux_l1_in_1__A1 chanx_left_in[10] vgnd vpwr scs8hd_diode_2
XFILLER_25_123 vgnd vpwr scs8hd_decap_4
XANTENNA_mux_bottom_track_5.mux_l2_in_1__A0 mux_bottom_track_5.mux_l1_in_3_/X vgnd
+ vpwr scs8hd_diode_2
XANTENNA_mux_left_track_1.mux_l3_in_0__S mux_left_track_1.mux_l3_in_0_/S vgnd vpwr
+ scs8hd_diode_2
XFILLER_15_35 vpwr vgnd scs8hd_fill_2
XANTENNA_mux_bottom_track_21.mux_l2_in_0__A0 mux_bottom_track_21.mux_l1_in_1_/X vgnd
+ vpwr scs8hd_diode_2
XANTENNA_mem_left_track_33.scs8hd_dfxbp_1_0__CLK prog_clk vgnd vpwr scs8hd_diode_2
XANTENNA_mem_left_track_25.scs8hd_dfxbp_1_1__D mux_left_track_25.mux_l1_in_1_/S vgnd
+ vpwr scs8hd_diode_2
XFILLER_0_244 vpwr vgnd scs8hd_fill_2
Xmux_right_track_8.mux_l2_in_1_ _054_/HI mux_right_track_8.mux_l1_in_2_/X mux_right_track_8.mux_l2_in_0_/S
+ mux_right_track_8.mux_l2_in_1_/X vgnd vpwr scs8hd_mux2_1
XFILLER_16_123 vpwr vgnd scs8hd_fill_2
XPHY_195 vgnd vpwr scs8hd_tapvpwrvgnd_1
XPHY_184 vgnd vpwr scs8hd_tapvpwrvgnd_1
XANTENNA_mux_right_track_4.mux_l3_in_0__S mux_right_track_4.mux_l3_in_0_/S vgnd vpwr
+ scs8hd_diode_2
XPHY_140 vgnd vpwr scs8hd_tapvpwrvgnd_1
XPHY_151 vgnd vpwr scs8hd_tapvpwrvgnd_1
XPHY_162 vgnd vpwr scs8hd_tapvpwrvgnd_1
XPHY_173 vgnd vpwr scs8hd_tapvpwrvgnd_1
XFILLER_11_3 vgnd vpwr scs8hd_decap_3
XANTENNA_mux_left_track_1.mux_l1_in_1__A0 chany_bottom_in[13] vgnd vpwr scs8hd_diode_2
XFILLER_26_56 vgnd vpwr scs8hd_decap_12
XFILLER_42_44 vgnd vpwr scs8hd_decap_12
Xmux_left_track_9.scs8hd_buf_4_0_ mux_left_track_9.mux_l3_in_0_/X _083_/A vgnd vpwr
+ scs8hd_buf_1
XFILLER_3_38 vpwr vgnd scs8hd_fill_2
XANTENNA_mux_bottom_track_13.mux_l2_in_0__A1 mux_bottom_track_13.mux_l1_in_0_/X vgnd
+ vpwr scs8hd_diode_2
XANTENNA_mux_bottom_track_5.mux_l3_in_0__A0 mux_bottom_track_5.mux_l2_in_1_/X vgnd
+ vpwr scs8hd_diode_2
XFILLER_12_181 vpwr vgnd scs8hd_fill_2
Xmem_bottom_track_21.scs8hd_dfxbp_1_0_ prog_clk mux_bottom_track_19.mux_l2_in_0_/S
+ mux_bottom_track_21.mux_l1_in_0_/S mem_bottom_track_21.scs8hd_dfxbp_1_0_/QN vgnd
+ vpwr scs8hd_dfxbp_1
XANTENNA_mem_right_track_4.scs8hd_dfxbp_1_0__D mux_right_track_2.mux_l3_in_0_/S vgnd
+ vpwr scs8hd_diode_2
XANTENNA__080__A chanx_right_in[6] vgnd vpwr scs8hd_diode_2
Xmux_right_track_8.mux_l1_in_2_ chanx_left_in[16] chanx_left_in[6] mux_right_track_8.mux_l1_in_1_/S
+ mux_right_track_8.mux_l1_in_2_/X vgnd vpwr scs8hd_mux2_1
XFILLER_37_55 vgnd vpwr scs8hd_decap_6
XFILLER_18_218 vpwr vgnd scs8hd_fill_2
XFILLER_41_232 vgnd vpwr scs8hd_decap_12
XFILLER_5_144 vpwr vgnd scs8hd_fill_2
XFILLER_32_276 vgnd vpwr scs8hd_fill_1
XANTENNA_mux_left_track_1.mux_l2_in_0__A0 mux_left_track_1.mux_l1_in_1_/X vgnd vpwr
+ scs8hd_diode_2
XFILLER_4_70 vgnd vpwr scs8hd_fill_1
XFILLER_23_243 vgnd vpwr scs8hd_fill_1
XFILLER_23_210 vpwr vgnd scs8hd_fill_2
XANTENNA_mux_bottom_track_7.mux_l1_in_0__A1 chanx_right_in[6] vgnd vpwr scs8hd_diode_2
XANTENNA__075__A _075_/A vgnd vpwr scs8hd_diode_2
XFILLER_2_125 vgnd vpwr scs8hd_decap_4
XFILLER_0_17 vpwr vgnd scs8hd_fill_2
XFILLER_14_210 vgnd vpwr scs8hd_fill_1
XFILLER_14_276 vgnd vpwr scs8hd_fill_1
XANTENNA_mux_bottom_track_35.scs8hd_buf_4_0__A mux_bottom_track_35.mux_l2_in_0_/X
+ vgnd vpwr scs8hd_diode_2
Xmem_left_track_9.scs8hd_dfxbp_1_0_ prog_clk mux_left_track_5.mux_l3_in_0_/S mux_left_track_9.mux_l1_in_0_/S
+ mem_left_track_9.scs8hd_dfxbp_1_0_/QN vgnd vpwr scs8hd_dfxbp_1
XFILLER_18_68 vpwr vgnd scs8hd_fill_2
XFILLER_34_56 vgnd vpwr scs8hd_decap_12
X_110_ _110_/A chany_bottom_out[17] vgnd vpwr scs8hd_buf_2
XANTENNA_mem_bottom_track_33.scs8hd_dfxbp_1_1__CLK prog_clk vgnd vpwr scs8hd_diode_2
XFILLER_11_257 vpwr vgnd scs8hd_fill_2
XANTENNA_mux_bottom_track_5.mux_l1_in_2__A1 bottom_left_grid_pin_40_ vgnd vpwr scs8hd_diode_2
X_041_ _041_/HI _041_/LO vgnd vpwr scs8hd_conb_1
XANTENNA_mux_bottom_track_21.mux_l1_in_1__A1 chanx_left_in[16] vgnd vpwr scs8hd_diode_2
XFILLER_41_3 vgnd vpwr scs8hd_decap_12
XFILLER_37_110 vgnd vpwr scs8hd_decap_12
XFILLER_1_71 vpwr vgnd scs8hd_fill_2
XANTENNA_mux_right_track_8.mux_l1_in_2__A0 chanx_left_in[16] vgnd vpwr scs8hd_diode_2
XANTENNA_mem_right_track_4.scs8hd_dfxbp_1_2__CLK prog_clk vgnd vpwr scs8hd_diode_2
XFILLER_29_23 vgnd vpwr scs8hd_decap_12
XFILLER_20_69 vgnd vpwr scs8hd_fill_1
XFILLER_28_154 vgnd vpwr scs8hd_decap_12
XANTENNA_mem_right_track_2.scs8hd_dfxbp_1_0__CLK prog_clk vgnd vpwr scs8hd_diode_2
XFILLER_10_80 vpwr vgnd scs8hd_fill_2
XFILLER_10_91 vgnd vpwr scs8hd_fill_1
XFILLER_13_7 vpwr vgnd scs8hd_fill_2
XFILLER_25_146 vpwr vgnd scs8hd_fill_2
XFILLER_25_113 vpwr vgnd scs8hd_fill_2
XANTENNA_mux_bottom_track_5.mux_l2_in_1__A1 mux_bottom_track_5.mux_l1_in_2_/X vgnd
+ vpwr scs8hd_diode_2
XFILLER_40_105 vgnd vpwr scs8hd_decap_12
XANTENNA__083__A _083_/A vgnd vpwr scs8hd_diode_2
XANTENNA_mux_bottom_track_21.mux_l2_in_0__A1 mux_bottom_track_21.mux_l1_in_0_/X vgnd
+ vpwr scs8hd_diode_2
Xmux_right_track_8.mux_l2_in_0_ mux_right_track_8.mux_l1_in_1_/X mux_right_track_8.mux_l1_in_0_/X
+ mux_right_track_8.mux_l2_in_0_/S mux_right_track_8.mux_l2_in_0_/X vgnd vpwr scs8hd_mux2_1
XPHY_130 vgnd vpwr scs8hd_tapvpwrvgnd_1
XPHY_141 vgnd vpwr scs8hd_tapvpwrvgnd_1
XPHY_152 vgnd vpwr scs8hd_tapvpwrvgnd_1
XPHY_196 vgnd vpwr scs8hd_tapvpwrvgnd_1
XANTENNA_mux_right_track_8.mux_l2_in_1__A0 _054_/HI vgnd vpwr scs8hd_diode_2
XPHY_185 vgnd vpwr scs8hd_tapvpwrvgnd_1
XPHY_163 vgnd vpwr scs8hd_tapvpwrvgnd_1
XPHY_174 vgnd vpwr scs8hd_tapvpwrvgnd_1
XFILLER_22_149 vpwr vgnd scs8hd_fill_2
XFILLER_22_116 vgnd vpwr scs8hd_decap_4
XANTENNA_mux_left_track_1.mux_l1_in_1__A1 chany_bottom_in[6] vgnd vpwr scs8hd_diode_2
XFILLER_38_271 vgnd vpwr scs8hd_decap_4
XANTENNA__078__A chanx_right_in[8] vgnd vpwr scs8hd_diode_2
XFILLER_26_68 vgnd vpwr scs8hd_decap_12
XFILLER_42_56 vgnd vpwr scs8hd_decap_6
XFILLER_21_193 vpwr vgnd scs8hd_fill_2
XANTENNA_mux_bottom_track_5.mux_l1_in_2__S mux_bottom_track_5.mux_l1_in_0_/S vgnd
+ vpwr scs8hd_diode_2
Xmem_bottom_track_29.scs8hd_dfxbp_1_1_ prog_clk mux_bottom_track_29.mux_l1_in_0_/S
+ mux_bottom_track_29.mux_l2_in_0_/S mem_bottom_track_29.scs8hd_dfxbp_1_1_/QN vgnd
+ vpwr scs8hd_dfxbp_1
XANTENNA_mux_bottom_track_5.mux_l3_in_0__A1 mux_bottom_track_5.mux_l2_in_0_/X vgnd
+ vpwr scs8hd_diode_2
XFILLER_8_142 vpwr vgnd scs8hd_fill_2
XFILLER_8_186 vgnd vpwr scs8hd_decap_3
XFILLER_27_208 vgnd vpwr scs8hd_decap_12
XFILLER_12_59 vgnd vpwr scs8hd_fill_1
Xmux_right_track_8.mux_l1_in_1_ chany_bottom_in[16] chany_bottom_in[9] mux_right_track_8.mux_l1_in_1_/S
+ mux_right_track_8.mux_l1_in_1_/X vgnd vpwr scs8hd_mux2_1
XANTENNA_mux_right_track_8.mux_l3_in_0__A0 mux_right_track_8.mux_l2_in_1_/X vgnd vpwr
+ scs8hd_diode_2
XANTENNA_mux_bottom_track_9.mux_l2_in_0__S mux_bottom_track_9.mux_l2_in_1_/S vgnd
+ vpwr scs8hd_diode_2
XANTENNA_mux_bottom_track_11.mux_l2_in_0__S mux_bottom_track_11.mux_l2_in_1_/S vgnd
+ vpwr scs8hd_diode_2
XFILLER_5_112 vgnd vpwr scs8hd_decap_4
XANTENNA_mux_bottom_track_17.mux_l1_in_0__A0 bottom_left_grid_pin_38_ vgnd vpwr scs8hd_diode_2
XANTENNA_mux_left_track_1.mux_l2_in_0__A1 mux_left_track_1.mux_l1_in_0_/X vgnd vpwr
+ scs8hd_diode_2
XANTENNA_mux_bottom_track_17.mux_l1_in_1__S mux_bottom_track_17.mux_l1_in_1_/S vgnd
+ vpwr scs8hd_diode_2
XFILLER_4_93 vpwr vgnd scs8hd_fill_2
XANTENNA__091__A _091_/A vgnd vpwr scs8hd_diode_2
XANTENNA_mem_bottom_track_9.scs8hd_dfxbp_1_2__CLK prog_clk vgnd vpwr scs8hd_diode_2
XFILLER_9_38 vgnd vpwr scs8hd_decap_4
XFILLER_14_233 vgnd vpwr scs8hd_fill_1
XANTENNA_mux_right_track_2.mux_l1_in_0__S mux_right_track_2.mux_l1_in_1_/S vgnd vpwr
+ scs8hd_diode_2
XANTENNA_mem_bottom_track_7.scs8hd_dfxbp_1_0__CLK prog_clk vgnd vpwr scs8hd_diode_2
XFILLER_20_247 vgnd vpwr scs8hd_decap_8
XFILLER_20_236 vgnd vpwr scs8hd_decap_8
XFILLER_9_270 vgnd vpwr scs8hd_decap_6
XANTENNA_mem_bottom_track_11.scs8hd_dfxbp_1_0__D mux_bottom_track_9.mux_l3_in_0_/S
+ vgnd vpwr scs8hd_diode_2
XFILLER_18_58 vpwr vgnd scs8hd_fill_2
XFILLER_34_68 vgnd vpwr scs8hd_decap_12
XANTENNA__086__A _086_/A vgnd vpwr scs8hd_diode_2
XFILLER_11_203 vgnd vpwr scs8hd_decap_3
XFILLER_11_236 vpwr vgnd scs8hd_fill_2
XFILLER_11_269 vpwr vgnd scs8hd_fill_2
XFILLER_1_3 vpwr vgnd scs8hd_fill_2
X_040_ _040_/HI _040_/LO vgnd vpwr scs8hd_conb_1
XANTENNA_mem_bottom_track_31.scs8hd_dfxbp_1_0__D mux_bottom_track_29.mux_l2_in_0_/S
+ vgnd vpwr scs8hd_diode_2
XFILLER_34_3 vgnd vpwr scs8hd_decap_12
XFILLER_6_273 vpwr vgnd scs8hd_fill_2