* NGSPICE file created from sb_1__1_.ext - technology: sky130A

* Black-box entry subcircuit for sky130_fd_sc_hd__fill_2 abstract view
.subckt sky130_fd_sc_hd__fill_2 VGND VNB VPB VPWR
.ends

* Black-box entry subcircuit for sky130_fd_sc_hd__dfxtp_1 abstract view
.subckt sky130_fd_sc_hd__dfxtp_1 D Q CLK VGND VNB VPB VPWR
.ends

* Black-box entry subcircuit for sky130_fd_sc_hd__decap_6 abstract view
.subckt sky130_fd_sc_hd__decap_6 VGND VNB VPB VPWR
.ends

* Black-box entry subcircuit for sky130_fd_sc_hd__fill_1 abstract view
.subckt sky130_fd_sc_hd__fill_1 VGND VNB VPB VPWR
.ends

* Black-box entry subcircuit for sky130_fd_sc_hd__mux2_1 abstract view
.subckt sky130_fd_sc_hd__mux2_1 A0 A1 S X VGND VNB VPB VPWR
.ends

* Black-box entry subcircuit for sky130_fd_sc_hd__decap_8 abstract view
.subckt sky130_fd_sc_hd__decap_8 VGND VNB VPB VPWR
.ends

* Black-box entry subcircuit for sky130_fd_sc_hd__decap_3 abstract view
.subckt sky130_fd_sc_hd__decap_3 VGND VNB VPB VPWR
.ends

* Black-box entry subcircuit for sky130_fd_sc_hd__buf_2 abstract view
.subckt sky130_fd_sc_hd__buf_2 A X VGND VNB VPB VPWR
.ends

* Black-box entry subcircuit for sky130_fd_sc_hd__clkbuf_1 abstract view
.subckt sky130_fd_sc_hd__clkbuf_1 A X VGND VNB VPB VPWR
.ends

* Black-box entry subcircuit for sky130_fd_sc_hd__conb_1 abstract view
.subckt sky130_fd_sc_hd__conb_1 HI LO VGND VNB VPB VPWR
.ends

* Black-box entry subcircuit for sky130_fd_sc_hd__diode_2 abstract view
.subckt sky130_fd_sc_hd__diode_2 DIODE VGND VNB VPB VPWR
.ends

* Black-box entry subcircuit for sky130_fd_sc_hd__tapvpwrvgnd_1 abstract view
.subckt sky130_fd_sc_hd__tapvpwrvgnd_1 VGND VPWR
.ends

* Black-box entry subcircuit for sky130_fd_sc_hd__buf_4 abstract view
.subckt sky130_fd_sc_hd__buf_4 A X VGND VNB VPB VPWR
.ends

* Black-box entry subcircuit for sky130_fd_sc_hd__decap_4 abstract view
.subckt sky130_fd_sc_hd__decap_4 VGND VNB VPB VPWR
.ends

* Black-box entry subcircuit for sky130_fd_sc_hd__clkbuf_16 abstract view
.subckt sky130_fd_sc_hd__clkbuf_16 A X VGND VNB VPB VPWR
.ends

* Black-box entry subcircuit for sky130_fd_sc_hd__decap_12 abstract view
.subckt sky130_fd_sc_hd__decap_12 VGND VNB VPB VPWR
.ends

.subckt sb_1__1_ bottom_left_grid_pin_42_ bottom_left_grid_pin_43_ bottom_left_grid_pin_44_
+ bottom_left_grid_pin_45_ bottom_left_grid_pin_46_ bottom_left_grid_pin_47_ bottom_left_grid_pin_48_
+ bottom_left_grid_pin_49_ ccff_head ccff_tail chanx_left_in[0] chanx_left_in[10]
+ chanx_left_in[11] chanx_left_in[12] chanx_left_in[13] chanx_left_in[14] chanx_left_in[15]
+ chanx_left_in[16] chanx_left_in[17] chanx_left_in[18] chanx_left_in[19] chanx_left_in[1]
+ chanx_left_in[2] chanx_left_in[3] chanx_left_in[4] chanx_left_in[5] chanx_left_in[6]
+ chanx_left_in[7] chanx_left_in[8] chanx_left_in[9] chanx_left_out[0] chanx_left_out[10]
+ chanx_left_out[11] chanx_left_out[12] chanx_left_out[13] chanx_left_out[14] chanx_left_out[15]
+ chanx_left_out[16] chanx_left_out[17] chanx_left_out[18] chanx_left_out[19] chanx_left_out[1]
+ chanx_left_out[2] chanx_left_out[3] chanx_left_out[4] chanx_left_out[5] chanx_left_out[6]
+ chanx_left_out[7] chanx_left_out[8] chanx_left_out[9] chanx_right_in[0] chanx_right_in[10]
+ chanx_right_in[11] chanx_right_in[12] chanx_right_in[13] chanx_right_in[14] chanx_right_in[15]
+ chanx_right_in[16] chanx_right_in[17] chanx_right_in[18] chanx_right_in[19] chanx_right_in[1]
+ chanx_right_in[2] chanx_right_in[3] chanx_right_in[4] chanx_right_in[5] chanx_right_in[6]
+ chanx_right_in[7] chanx_right_in[8] chanx_right_in[9] chanx_right_out[0] chanx_right_out[10]
+ chanx_right_out[11] chanx_right_out[12] chanx_right_out[13] chanx_right_out[14]
+ chanx_right_out[15] chanx_right_out[16] chanx_right_out[17] chanx_right_out[18]
+ chanx_right_out[19] chanx_right_out[1] chanx_right_out[2] chanx_right_out[3] chanx_right_out[4]
+ chanx_right_out[5] chanx_right_out[6] chanx_right_out[7] chanx_right_out[8] chanx_right_out[9]
+ chany_bottom_in[0] chany_bottom_in[10] chany_bottom_in[11] chany_bottom_in[12] chany_bottom_in[13]
+ chany_bottom_in[14] chany_bottom_in[15] chany_bottom_in[16] chany_bottom_in[17]
+ chany_bottom_in[18] chany_bottom_in[19] chany_bottom_in[1] chany_bottom_in[2] chany_bottom_in[3]
+ chany_bottom_in[4] chany_bottom_in[5] chany_bottom_in[6] chany_bottom_in[7] chany_bottom_in[8]
+ chany_bottom_in[9] chany_bottom_out[0] chany_bottom_out[10] chany_bottom_out[11]
+ chany_bottom_out[12] chany_bottom_out[13] chany_bottom_out[14] chany_bottom_out[15]
+ chany_bottom_out[16] chany_bottom_out[17] chany_bottom_out[18] chany_bottom_out[19]
+ chany_bottom_out[1] chany_bottom_out[2] chany_bottom_out[3] chany_bottom_out[4]
+ chany_bottom_out[5] chany_bottom_out[6] chany_bottom_out[7] chany_bottom_out[8]
+ chany_bottom_out[9] chany_top_in[0] chany_top_in[10] chany_top_in[11] chany_top_in[12]
+ chany_top_in[13] chany_top_in[14] chany_top_in[15] chany_top_in[16] chany_top_in[17]
+ chany_top_in[18] chany_top_in[19] chany_top_in[1] chany_top_in[2] chany_top_in[3]
+ chany_top_in[4] chany_top_in[5] chany_top_in[6] chany_top_in[7] chany_top_in[8]
+ chany_top_in[9] chany_top_out[0] chany_top_out[10] chany_top_out[11] chany_top_out[12]
+ chany_top_out[13] chany_top_out[14] chany_top_out[15] chany_top_out[16] chany_top_out[17]
+ chany_top_out[18] chany_top_out[19] chany_top_out[1] chany_top_out[2] chany_top_out[3]
+ chany_top_out[4] chany_top_out[5] chany_top_out[6] chany_top_out[7] chany_top_out[8]
+ chany_top_out[9] left_bottom_grid_pin_34_ left_bottom_grid_pin_35_ left_bottom_grid_pin_36_
+ left_bottom_grid_pin_37_ left_bottom_grid_pin_38_ left_bottom_grid_pin_39_ left_bottom_grid_pin_40_
+ left_bottom_grid_pin_41_ prog_clk right_bottom_grid_pin_34_ right_bottom_grid_pin_35_
+ right_bottom_grid_pin_36_ right_bottom_grid_pin_37_ right_bottom_grid_pin_38_ right_bottom_grid_pin_39_
+ right_bottom_grid_pin_40_ right_bottom_grid_pin_41_ top_left_grid_pin_42_ top_left_grid_pin_43_
+ top_left_grid_pin_44_ top_left_grid_pin_45_ top_left_grid_pin_46_ top_left_grid_pin_47_
+ top_left_grid_pin_48_ top_left_grid_pin_49_ VPWR VGND
XFILLER_22_199 VGND VGND VPWR VPWR sky130_fd_sc_hd__fill_2
XFILLER_22_122 VGND VGND VPWR VPWR sky130_fd_sc_hd__fill_2
Xmem_right_track_2.sky130_fd_sc_hd__dfxtp_1_0_ mux_right_track_0.mux_l4_in_0_/S mux_right_track_2.mux_l1_in_1_/S
+ clkbuf_3_5_0_prog_clk/X VGND VGND VPWR VPWR sky130_fd_sc_hd__dfxtp_1
XFILLER_26_41 VGND VGND VPWR VPWR sky130_fd_sc_hd__decap_6
Xmem_left_track_17.sky130_fd_sc_hd__dfxtp_1_0_ mux_left_track_9.mux_l4_in_0_/S mux_left_track_17.mux_l1_in_0_/S
+ clkbuf_3_3_0_prog_clk/X VGND VGND VPWR VPWR sky130_fd_sc_hd__dfxtp_1
XFILLER_9_137 VGND VGND VPWR VPWR sky130_fd_sc_hd__fill_1
XFILLER_9_115 VGND VGND VPWR VPWR sky130_fd_sc_hd__fill_1
Xmux_bottom_track_3.mux_l1_in_1_ chanx_right_in[11] chanx_right_in[4] mux_bottom_track_3.mux_l1_in_4_/S
+ mux_bottom_track_3.mux_l1_in_1_/X VGND VGND VPWR VPWR sky130_fd_sc_hd__mux2_1
XFILLER_18_203 VGND VGND VPWR VPWR sky130_fd_sc_hd__decap_8
XFILLER_12_32 VGND VGND VPWR VPWR sky130_fd_sc_hd__decap_8
XFILLER_5_140 VGND VGND VPWR VPWR sky130_fd_sc_hd__decap_3
X_131_ _131_/A chany_top_out[4] VGND VGND VPWR VPWR sky130_fd_sc_hd__buf_2
X_062_ chanx_right_in[12] chanx_left_out[13] VGND VGND VPWR VPWR sky130_fd_sc_hd__buf_2
XFILLER_23_53 VGND VGND VPWR VPWR sky130_fd_sc_hd__fill_2
Xmem_right_track_8.sky130_fd_sc_hd__dfxtp_1_1_ mux_right_track_8.mux_l1_in_1_/S mux_right_track_8.mux_l2_in_3_/S
+ clkbuf_3_5_0_prog_clk/X VGND VGND VPWR VPWR sky130_fd_sc_hd__dfxtp_1
XFILLER_2_154 VGND VGND VPWR VPWR sky130_fd_sc_hd__fill_1
Xclkbuf_3_4_0_prog_clk clkbuf_2_2_0_prog_clk/X clkbuf_3_4_0_prog_clk/X VGND VGND VPWR
+ VPWR sky130_fd_sc_hd__clkbuf_1
XFILLER_18_64 VGND VGND VPWR VPWR sky130_fd_sc_hd__fill_2
XFILLER_18_20 VGND VGND VPWR VPWR sky130_fd_sc_hd__fill_2
X_045_ _045_/HI _045_/LO VGND VGND VPWR VPWR sky130_fd_sc_hd__conb_1
X_114_ _114_/A chany_bottom_out[1] VGND VGND VPWR VPWR sky130_fd_sc_hd__buf_2
Xmem_bottom_track_25.sky130_fd_sc_hd__dfxtp_1_2_ mux_bottom_track_25.mux_l2_in_3_/S
+ mux_bottom_track_25.mux_l3_in_1_/S clkbuf_3_6_0_prog_clk/X VGND VGND VPWR VPWR sky130_fd_sc_hd__dfxtp_1
Xmux_bottom_track_17.mux_l1_in_0_ chany_top_in[17] chany_top_in[8] mux_bottom_track_17.mux_l1_in_1_/S
+ mux_bottom_track_17.mux_l1_in_0_/X VGND VGND VPWR VPWR sky130_fd_sc_hd__mux2_1
XFILLER_20_10 VGND VGND VPWR VPWR sky130_fd_sc_hd__fill_2
X_028_ _028_/HI _028_/LO VGND VGND VPWR VPWR sky130_fd_sc_hd__conb_1
XANTENNA_5 chanx_left_in[13] VGND VGND VPWR VPWR sky130_fd_sc_hd__diode_2
XFILLER_6_23 VGND VGND VPWR VPWR sky130_fd_sc_hd__fill_2
XFILLER_25_120 VGND VGND VPWR VPWR sky130_fd_sc_hd__fill_2
XFILLER_1_219 VGND VGND VPWR VPWR sky130_fd_sc_hd__fill_1
XFILLER_1_208 VGND VGND VPWR VPWR sky130_fd_sc_hd__decap_3
XPHY_181 VGND VPWR sky130_fd_sc_hd__tapvpwrvgnd_1
XPHY_170 VGND VPWR sky130_fd_sc_hd__tapvpwrvgnd_1
Xmux_bottom_track_3.sky130_fd_sc_hd__buf_4_0_ mux_bottom_track_3.mux_l4_in_0_/X _114_/A
+ VGND VGND VPWR VPWR sky130_fd_sc_hd__buf_4
Xmem_bottom_track_3.sky130_fd_sc_hd__dfxtp_1_3_ mux_bottom_track_3.mux_l3_in_1_/S
+ mux_bottom_track_3.mux_l4_in_0_/S clkbuf_3_4_0_prog_clk/X VGND VGND VPWR VPWR sky130_fd_sc_hd__dfxtp_1
XFILLER_13_145 VGND VGND VPWR VPWR sky130_fd_sc_hd__fill_2
Xmux_bottom_track_3.mux_l1_in_0_ chany_top_in[13] chany_top_in[4] mux_bottom_track_3.mux_l1_in_4_/S
+ mux_bottom_track_3.mux_l1_in_0_/X VGND VGND VPWR VPWR sky130_fd_sc_hd__mux2_1
XFILLER_3_79 VGND VGND VPWR VPWR sky130_fd_sc_hd__fill_1
XFILLER_8_193 VGND VGND VPWR VPWR sky130_fd_sc_hd__decap_3
XFILLER_18_215 VGND VGND VPWR VPWR sky130_fd_sc_hd__decap_4
XFILLER_12_11 VGND VGND VPWR VPWR sky130_fd_sc_hd__fill_2
XFILLER_5_152 VGND VGND VPWR VPWR sky130_fd_sc_hd__fill_2
XFILLER_5_163 VGND VGND VPWR VPWR sky130_fd_sc_hd__decap_3
X_130_ chany_bottom_in[4] chany_top_out[5] VGND VGND VPWR VPWR sky130_fd_sc_hd__buf_2
XFILLER_23_21 VGND VGND VPWR VPWR sky130_fd_sc_hd__fill_2
XFILLER_23_10 VGND VGND VPWR VPWR sky130_fd_sc_hd__fill_2
X_061_ chanx_right_in[13] chanx_left_out[14] VGND VGND VPWR VPWR sky130_fd_sc_hd__buf_2
Xmem_right_track_8.sky130_fd_sc_hd__dfxtp_1_0_ mux_right_track_4.mux_l5_in_0_/S mux_right_track_8.mux_l1_in_1_/S
+ clkbuf_3_5_0_prog_clk/X VGND VGND VPWR VPWR sky130_fd_sc_hd__dfxtp_1
XFILLER_0_47 VGND VGND VPWR VPWR sky130_fd_sc_hd__decap_4
XFILLER_2_111 VGND VGND VPWR VPWR sky130_fd_sc_hd__fill_2
XFILLER_2_122 VGND VGND VPWR VPWR sky130_fd_sc_hd__fill_2
XFILLER_2_133 VGND VGND VPWR VPWR sky130_fd_sc_hd__fill_2
XFILLER_2_144 VGND VGND VPWR VPWR sky130_fd_sc_hd__fill_2
XFILLER_2_199 VGND VGND VPWR VPWR sky130_fd_sc_hd__fill_2
Xmux_left_track_9.sky130_fd_sc_hd__buf_4_0_ mux_left_track_9.mux_l4_in_0_/X _071_/A
+ VGND VGND VPWR VPWR sky130_fd_sc_hd__buf_4
X_044_ _044_/HI _044_/LO VGND VGND VPWR VPWR sky130_fd_sc_hd__conb_1
X_113_ _113_/A chany_bottom_out[2] VGND VGND VPWR VPWR sky130_fd_sc_hd__buf_2
Xmem_bottom_track_25.sky130_fd_sc_hd__dfxtp_1_1_ mux_bottom_track_25.mux_l1_in_0_/S
+ mux_bottom_track_25.mux_l2_in_3_/S clkbuf_3_6_0_prog_clk/X VGND VGND VPWR VPWR sky130_fd_sc_hd__dfxtp_1
XFILLER_29_53 VGND VGND VPWR VPWR sky130_fd_sc_hd__fill_2
XFILLER_29_42 VGND VGND VPWR VPWR sky130_fd_sc_hd__fill_2
XFILLER_29_31 VGND VGND VPWR VPWR sky130_fd_sc_hd__fill_2
Xmem_top_track_16.sky130_fd_sc_hd__dfxtp_1_3_ mux_top_track_16.mux_l3_in_0_/S mux_top_track_16.mux_l4_in_0_/S
+ clkbuf_3_6_0_prog_clk/X VGND VGND VPWR VPWR sky130_fd_sc_hd__dfxtp_1
XANTENNA_6 chanx_left_in[13] VGND VGND VPWR VPWR sky130_fd_sc_hd__diode_2
XFILLER_19_173 VGND VGND VPWR VPWR sky130_fd_sc_hd__fill_2
XFILLER_19_162 VGND VGND VPWR VPWR sky130_fd_sc_hd__fill_2
XFILLER_19_140 VGND VGND VPWR VPWR sky130_fd_sc_hd__fill_2
XFILLER_25_143 VGND VGND VPWR VPWR sky130_fd_sc_hd__decap_4
XFILLER_25_132 VGND VGND VPWR VPWR sky130_fd_sc_hd__fill_2
XFILLER_15_55 VGND VGND VPWR VPWR sky130_fd_sc_hd__decap_6
XPHY_182 VGND VPWR sky130_fd_sc_hd__tapvpwrvgnd_1
XFILLER_31_179 VGND VGND VPWR VPWR sky130_fd_sc_hd__decap_4
XFILLER_31_102 VGND VGND VPWR VPWR sky130_fd_sc_hd__fill_2
XPHY_171 VGND VPWR sky130_fd_sc_hd__tapvpwrvgnd_1
Xmux_right_track_8.mux_l2_in_3_ _035_/HI chanx_left_in[16] mux_right_track_8.mux_l2_in_3_/S
+ mux_right_track_8.mux_l2_in_3_/X VGND VGND VPWR VPWR sky130_fd_sc_hd__mux2_1
XPHY_160 VGND VPWR sky130_fd_sc_hd__tapvpwrvgnd_1
Xmux_left_track_25.sky130_fd_sc_hd__buf_4_0_ mux_left_track_25.mux_l4_in_0_/X _063_/A
+ VGND VGND VPWR VPWR sky130_fd_sc_hd__buf_4
Xmux_top_track_0.mux_l2_in_3_ _036_/HI chanx_left_in[12] mux_top_track_0.mux_l2_in_0_/S
+ mux_top_track_0.mux_l2_in_3_/X VGND VGND VPWR VPWR sky130_fd_sc_hd__mux2_1
XFILLER_22_113 VGND VGND VPWR VPWR sky130_fd_sc_hd__decap_4
XFILLER_22_102 VGND VGND VPWR VPWR sky130_fd_sc_hd__fill_2
Xmem_bottom_track_3.sky130_fd_sc_hd__dfxtp_1_2_ mux_bottom_track_3.mux_l2_in_3_/S
+ mux_bottom_track_3.mux_l3_in_1_/S clkbuf_3_1_0_prog_clk/X VGND VGND VPWR VPWR sky130_fd_sc_hd__dfxtp_1
XFILLER_26_98 VGND VGND VPWR VPWR sky130_fd_sc_hd__fill_2
XFILLER_6_109 VGND VGND VPWR VPWR sky130_fd_sc_hd__fill_2
XFILLER_5_120 VGND VGND VPWR VPWR sky130_fd_sc_hd__fill_2
XFILLER_5_197 VGND VGND VPWR VPWR sky130_fd_sc_hd__fill_1
Xmux_top_track_0.mux_l1_in_4_ chanx_left_in[0] chany_bottom_in[12] mux_top_track_0.mux_l1_in_1_/S
+ mux_top_track_0.mux_l1_in_4_/X VGND VGND VPWR VPWR sky130_fd_sc_hd__mux2_1
Xmux_right_track_8.mux_l4_in_0_ mux_right_track_8.mux_l3_in_1_/X mux_right_track_8.mux_l3_in_0_/X
+ mux_right_track_8.mux_l4_in_0_/S mux_right_track_8.mux_l4_in_0_/X VGND VGND VPWR
+ VPWR sky130_fd_sc_hd__mux2_1
XFILLER_24_219 VGND VGND VPWR VPWR sky130_fd_sc_hd__fill_1
XFILLER_4_90 VGND VGND VPWR VPWR sky130_fd_sc_hd__fill_2
X_060_ chanx_right_in[14] chanx_left_out[15] VGND VGND VPWR VPWR sky130_fd_sc_hd__buf_2
Xmux_top_track_0.mux_l4_in_0_ mux_top_track_0.mux_l3_in_1_/X mux_top_track_0.mux_l3_in_0_/X
+ mux_top_track_0.mux_l4_in_0_/S mux_top_track_0.mux_l4_in_0_/X VGND VGND VPWR VPWR
+ sky130_fd_sc_hd__mux2_1
Xmem_bottom_track_9.sky130_fd_sc_hd__dfxtp_1_3_ mux_bottom_track_9.mux_l3_in_1_/S
+ mux_bottom_track_9.mux_l4_in_0_/S clkbuf_3_1_0_prog_clk/X VGND VGND VPWR VPWR sky130_fd_sc_hd__dfxtp_1
XFILLER_9_13 VGND VGND VPWR VPWR sky130_fd_sc_hd__fill_2
XFILLER_3_3 VGND VGND VPWR VPWR sky130_fd_sc_hd__decap_6
X_112_ chany_top_in[2] chany_bottom_out[3] VGND VGND VPWR VPWR sky130_fd_sc_hd__buf_2
X_043_ _043_/HI _043_/LO VGND VGND VPWR VPWR sky130_fd_sc_hd__conb_1
Xmux_right_track_8.mux_l3_in_1_ mux_right_track_8.mux_l2_in_3_/X mux_right_track_8.mux_l2_in_2_/X
+ mux_right_track_8.mux_l3_in_1_/S mux_right_track_8.mux_l3_in_1_/X VGND VGND VPWR
+ VPWR sky130_fd_sc_hd__mux2_1
Xmem_bottom_track_25.sky130_fd_sc_hd__dfxtp_1_0_ mux_bottom_track_17.mux_l4_in_0_/S
+ mux_bottom_track_25.mux_l1_in_0_/S clkbuf_3_6_0_prog_clk/X VGND VGND VPWR VPWR sky130_fd_sc_hd__dfxtp_1
Xmux_top_track_0.mux_l3_in_1_ mux_top_track_0.mux_l2_in_3_/X mux_top_track_0.mux_l2_in_2_/X
+ mux_top_track_0.mux_l3_in_0_/S mux_top_track_0.mux_l3_in_1_/X VGND VGND VPWR VPWR
+ sky130_fd_sc_hd__mux2_1
XFILLER_4_218 VGND VGND VPWR VPWR sky130_fd_sc_hd__fill_2
Xmem_top_track_16.sky130_fd_sc_hd__dfxtp_1_2_ mux_top_track_16.mux_l2_in_0_/S mux_top_track_16.mux_l3_in_0_/S
+ clkbuf_3_6_0_prog_clk/X VGND VGND VPWR VPWR sky130_fd_sc_hd__dfxtp_1
XFILLER_29_21 VGND VGND VPWR VPWR sky130_fd_sc_hd__fill_1
XFILLER_28_196 VGND VGND VPWR VPWR sky130_fd_sc_hd__decap_4
XFILLER_28_185 VGND VGND VPWR VPWR sky130_fd_sc_hd__fill_2
XFILLER_28_174 VGND VGND VPWR VPWR sky130_fd_sc_hd__fill_2
XFILLER_28_163 VGND VGND VPWR VPWR sky130_fd_sc_hd__fill_2
XANTENNA_7 chanx_left_in[17] VGND VGND VPWR VPWR sky130_fd_sc_hd__diode_2
XFILLER_31_55 VGND VGND VPWR VPWR sky130_fd_sc_hd__decap_6
XFILLER_31_11 VGND VGND VPWR VPWR sky130_fd_sc_hd__fill_2
Xmux_right_track_8.mux_l2_in_2_ chanx_left_in[6] chany_bottom_in[16] mux_right_track_8.mux_l2_in_3_/S
+ mux_right_track_8.mux_l2_in_2_/X VGND VGND VPWR VPWR sky130_fd_sc_hd__mux2_1
XFILLER_16_122 VGND VGND VPWR VPWR sky130_fd_sc_hd__decap_4
XFILLER_15_23 VGND VGND VPWR VPWR sky130_fd_sc_hd__fill_2
XPHY_183 VGND VPWR sky130_fd_sc_hd__tapvpwrvgnd_1
XFILLER_31_169 VGND VGND VPWR VPWR sky130_fd_sc_hd__decap_4
XPHY_172 VGND VPWR sky130_fd_sc_hd__tapvpwrvgnd_1
XPHY_161 VGND VPWR sky130_fd_sc_hd__tapvpwrvgnd_1
XPHY_150 VGND VPWR sky130_fd_sc_hd__tapvpwrvgnd_1
Xmux_top_track_0.mux_l2_in_2_ chanx_left_in[2] mux_top_track_0.mux_l1_in_4_/X mux_top_track_0.mux_l2_in_0_/S
+ mux_top_track_0.mux_l2_in_2_/X VGND VGND VPWR VPWR sky130_fd_sc_hd__mux2_1
Xclkbuf_2_1_0_prog_clk clkbuf_2_1_0_prog_clk/A clkbuf_3_3_0_prog_clk/A VGND VGND VPWR
+ VPWR sky130_fd_sc_hd__clkbuf_1
XFILLER_13_114 VGND VGND VPWR VPWR sky130_fd_sc_hd__fill_2
XFILLER_13_103 VGND VGND VPWR VPWR sky130_fd_sc_hd__fill_2
Xmem_bottom_track_3.sky130_fd_sc_hd__dfxtp_1_1_ mux_bottom_track_3.mux_l1_in_4_/S
+ mux_bottom_track_3.mux_l2_in_3_/S clkbuf_3_4_0_prog_clk/X VGND VGND VPWR VPWR sky130_fd_sc_hd__dfxtp_1
XFILLER_8_184 VGND VGND VPWR VPWR sky130_fd_sc_hd__decap_4
XFILLER_8_151 VGND VGND VPWR VPWR sky130_fd_sc_hd__fill_2
XFILLER_3_26 VGND VGND VPWR VPWR sky130_fd_sc_hd__decap_6
XFILLER_3_59 VGND VGND VPWR VPWR sky130_fd_sc_hd__fill_2
Xmux_top_track_0.mux_l1_in_3_ chany_bottom_in[2] chanx_right_in[12] mux_top_track_0.mux_l1_in_1_/S
+ mux_top_track_0.mux_l1_in_3_/X VGND VGND VPWR VPWR sky130_fd_sc_hd__mux2_1
XFILLER_5_132 VGND VGND VPWR VPWR sky130_fd_sc_hd__fill_2
Xmem_bottom_track_9.sky130_fd_sc_hd__dfxtp_1_2_ mux_bottom_track_9.mux_l2_in_2_/S
+ mux_bottom_track_9.mux_l3_in_1_/S clkbuf_3_1_0_prog_clk/X VGND VGND VPWR VPWR sky130_fd_sc_hd__dfxtp_1
XFILLER_0_16 VGND VGND VPWR VPWR sky130_fd_sc_hd__fill_2
XFILLER_29_3 VGND VGND VPWR VPWR sky130_fd_sc_hd__decap_4
X_042_ _042_/HI _042_/LO VGND VGND VPWR VPWR sky130_fd_sc_hd__conb_1
X_111_ _111_/A chany_bottom_out[4] VGND VGND VPWR VPWR sky130_fd_sc_hd__buf_2
Xmux_right_track_8.mux_l3_in_0_ mux_right_track_8.mux_l2_in_1_/X mux_right_track_8.mux_l2_in_0_/X
+ mux_right_track_8.mux_l3_in_1_/S mux_right_track_8.mux_l3_in_0_/X VGND VGND VPWR
+ VPWR sky130_fd_sc_hd__mux2_1
Xmux_top_track_0.mux_l3_in_0_ mux_top_track_0.mux_l2_in_1_/X mux_top_track_0.mux_l2_in_0_/X
+ mux_top_track_0.mux_l3_in_0_/S mux_top_track_0.mux_l3_in_0_/X VGND VGND VPWR VPWR
+ sky130_fd_sc_hd__mux2_1
XFILLER_29_66 VGND VGND VPWR VPWR sky130_fd_sc_hd__decap_3
XFILLER_29_11 VGND VGND VPWR VPWR sky130_fd_sc_hd__fill_2
XANTENNA_8 chanx_left_in[19] VGND VGND VPWR VPWR sky130_fd_sc_hd__diode_2
Xclkbuf_3_3_0_prog_clk clkbuf_3_3_0_prog_clk/A clkbuf_3_3_0_prog_clk/X VGND VGND VPWR
+ VPWR sky130_fd_sc_hd__clkbuf_1
XFILLER_20_68 VGND VGND VPWR VPWR sky130_fd_sc_hd__decap_4
XFILLER_6_48 VGND VGND VPWR VPWR sky130_fd_sc_hd__decap_8
Xmem_top_track_16.sky130_fd_sc_hd__dfxtp_1_1_ mux_top_track_16.mux_l1_in_2_/S mux_top_track_16.mux_l2_in_0_/S
+ clkbuf_3_3_0_prog_clk/X VGND VGND VPWR VPWR sky130_fd_sc_hd__dfxtp_1
XFILLER_19_120 VGND VGND VPWR VPWR sky130_fd_sc_hd__fill_2
XFILLER_13_6 VGND VGND VPWR VPWR sky130_fd_sc_hd__fill_2
XFILLER_10_90 VGND VGND VPWR VPWR sky130_fd_sc_hd__fill_2
XFILLER_31_78 VGND VGND VPWR VPWR sky130_fd_sc_hd__fill_2
XFILLER_31_23 VGND VGND VPWR VPWR sky130_fd_sc_hd__decap_4
XFILLER_25_178 VGND VGND VPWR VPWR sky130_fd_sc_hd__decap_4
XFILLER_25_167 VGND VGND VPWR VPWR sky130_fd_sc_hd__fill_2
XFILLER_25_156 VGND VGND VPWR VPWR sky130_fd_sc_hd__fill_2
XFILLER_25_112 VGND VGND VPWR VPWR sky130_fd_sc_hd__decap_4
XPHY_184 VGND VPWR sky130_fd_sc_hd__tapvpwrvgnd_1
XPHY_173 VGND VPWR sky130_fd_sc_hd__tapvpwrvgnd_1
Xmux_right_track_8.mux_l2_in_1_ chany_bottom_in[6] mux_right_track_8.mux_l1_in_2_/X
+ mux_right_track_8.mux_l2_in_3_/S mux_right_track_8.mux_l2_in_1_/X VGND VGND VPWR
+ VPWR sky130_fd_sc_hd__mux2_1
XPHY_162 VGND VPWR sky130_fd_sc_hd__tapvpwrvgnd_1
XPHY_151 VGND VPWR sky130_fd_sc_hd__tapvpwrvgnd_1
Xmux_top_track_0.mux_l2_in_1_ mux_top_track_0.mux_l1_in_3_/X mux_top_track_0.mux_l1_in_2_/X
+ mux_top_track_0.mux_l2_in_0_/S mux_top_track_0.mux_l2_in_1_/X VGND VGND VPWR VPWR
+ sky130_fd_sc_hd__mux2_1
XPHY_140 VGND VPWR sky130_fd_sc_hd__tapvpwrvgnd_1
XFILLER_16_189 VGND VGND VPWR VPWR sky130_fd_sc_hd__fill_1
XFILLER_16_101 VGND VGND VPWR VPWR sky130_fd_sc_hd__fill_1
XFILLER_30_192 VGND VGND VPWR VPWR sky130_fd_sc_hd__decap_4
XFILLER_26_67 VGND VGND VPWR VPWR sky130_fd_sc_hd__fill_2
XFILLER_26_56 VGND VGND VPWR VPWR sky130_fd_sc_hd__fill_2
Xmem_bottom_track_3.sky130_fd_sc_hd__dfxtp_1_0_ mux_bottom_track_1.mux_l4_in_0_/S
+ mux_bottom_track_3.mux_l1_in_4_/S clkbuf_3_4_0_prog_clk/X VGND VGND VPWR VPWR sky130_fd_sc_hd__dfxtp_1
XFILLER_21_181 VGND VGND VPWR VPWR sky130_fd_sc_hd__fill_2
XFILLER_21_170 VGND VGND VPWR VPWR sky130_fd_sc_hd__fill_2
XFILLER_12_192 VGND VGND VPWR VPWR sky130_fd_sc_hd__fill_2
XFILLER_12_181 VGND VGND VPWR VPWR sky130_fd_sc_hd__fill_2
XFILLER_12_170 VGND VGND VPWR VPWR sky130_fd_sc_hd__fill_2
Xmux_right_track_8.mux_l1_in_2_ chany_bottom_in[3] right_bottom_grid_pin_38_ mux_right_track_8.mux_l1_in_1_/S
+ mux_right_track_8.mux_l1_in_2_/X VGND VGND VPWR VPWR sky130_fd_sc_hd__mux2_1
Xmux_top_track_0.mux_l1_in_2_ chanx_right_in[2] chanx_right_in[1] mux_top_track_0.mux_l1_in_1_/S
+ mux_top_track_0.mux_l1_in_2_/X VGND VGND VPWR VPWR sky130_fd_sc_hd__mux2_1
Xmux_top_track_16.sky130_fd_sc_hd__buf_4_0_ mux_top_track_16.mux_l4_in_0_/X _127_/A
+ VGND VGND VPWR VPWR sky130_fd_sc_hd__buf_4
Xmem_bottom_track_9.sky130_fd_sc_hd__dfxtp_1_1_ mux_bottom_track_9.mux_l1_in_2_/S
+ mux_bottom_track_9.mux_l2_in_2_/S clkbuf_3_1_0_prog_clk/X VGND VGND VPWR VPWR sky130_fd_sc_hd__dfxtp_1
XFILLER_2_169 VGND VGND VPWR VPWR sky130_fd_sc_hd__fill_2
Xmux_bottom_track_25.mux_l2_in_3_ _045_/HI chanx_left_in[19] mux_bottom_track_25.mux_l2_in_3_/S
+ mux_bottom_track_25.mux_l2_in_3_/X VGND VGND VPWR VPWR sky130_fd_sc_hd__mux2_1
XFILLER_14_210 VGND VGND VPWR VPWR sky130_fd_sc_hd__decap_4
XFILLER_9_59 VGND VGND VPWR VPWR sky130_fd_sc_hd__fill_2
XFILLER_20_213 VGND VGND VPWR VPWR sky130_fd_sc_hd__fill_1
X_041_ _041_/HI _041_/LO VGND VGND VPWR VPWR sky130_fd_sc_hd__conb_1
Xmem_bottom_track_17.sky130_fd_sc_hd__dfxtp_1_3_ mux_bottom_track_17.mux_l3_in_0_/S
+ mux_bottom_track_17.mux_l4_in_0_/S clkbuf_3_3_0_prog_clk/X VGND VGND VPWR VPWR sky130_fd_sc_hd__dfxtp_1
X_110_ chany_top_in[4] chany_bottom_out[5] VGND VGND VPWR VPWR sky130_fd_sc_hd__buf_2
Xmux_right_track_4.mux_l2_in_7_ _034_/HI chanx_left_in[14] mux_right_track_4.mux_l2_in_7_/S
+ mux_right_track_4.mux_l2_in_7_/X VGND VGND VPWR VPWR sky130_fd_sc_hd__mux2_1
XFILLER_1_82 VGND VGND VPWR VPWR sky130_fd_sc_hd__fill_1
XFILLER_1_60 VGND VGND VPWR VPWR sky130_fd_sc_hd__fill_1
Xmem_top_track_16.sky130_fd_sc_hd__dfxtp_1_0_ mux_top_track_8.mux_l4_in_0_/S mux_top_track_16.mux_l1_in_2_/S
+ clkbuf_3_6_0_prog_clk/X VGND VGND VPWR VPWR sky130_fd_sc_hd__dfxtp_1
XANTENNA_9 chanx_left_in[19] VGND VGND VPWR VPWR sky130_fd_sc_hd__diode_2
Xmux_bottom_track_9.mux_l2_in_3_ _049_/HI chanx_left_in[16] mux_bottom_track_9.mux_l2_in_2_/S
+ mux_bottom_track_9.mux_l2_in_3_/X VGND VGND VPWR VPWR sky130_fd_sc_hd__mux2_1
XFILLER_10_80 VGND VGND VPWR VPWR sky130_fd_sc_hd__fill_1
Xmux_top_track_0.sky130_fd_sc_hd__buf_4_0_ mux_top_track_0.mux_l4_in_0_/X _135_/A
+ VGND VGND VPWR VPWR sky130_fd_sc_hd__buf_4
XFILLER_15_36 VGND VGND VPWR VPWR sky130_fd_sc_hd__decap_4
Xmux_bottom_track_25.mux_l4_in_0_ mux_bottom_track_25.mux_l3_in_1_/X mux_bottom_track_25.mux_l3_in_0_/X
+ mux_bottom_track_25.mux_l4_in_0_/S mux_bottom_track_25.mux_l4_in_0_/X VGND VGND
+ VPWR VPWR sky130_fd_sc_hd__mux2_1
XPHY_185 VGND VPWR sky130_fd_sc_hd__tapvpwrvgnd_1
XPHY_174 VGND VPWR sky130_fd_sc_hd__tapvpwrvgnd_1
XPHY_163 VGND VPWR sky130_fd_sc_hd__tapvpwrvgnd_1
Xmux_right_track_8.mux_l2_in_0_ mux_right_track_8.mux_l1_in_1_/X mux_right_track_8.mux_l1_in_0_/X
+ mux_right_track_8.mux_l2_in_3_/S mux_right_track_8.mux_l2_in_0_/X VGND VGND VPWR
+ VPWR sky130_fd_sc_hd__mux2_1
Xmux_top_track_0.mux_l2_in_0_ mux_top_track_0.mux_l1_in_1_/X mux_top_track_0.mux_l1_in_0_/X
+ mux_top_track_0.mux_l2_in_0_/S mux_top_track_0.mux_l2_in_0_/X VGND VGND VPWR VPWR
+ sky130_fd_sc_hd__mux2_1
XPHY_152 VGND VPWR sky130_fd_sc_hd__tapvpwrvgnd_1
XPHY_141 VGND VPWR sky130_fd_sc_hd__tapvpwrvgnd_1
XPHY_130 VGND VPWR sky130_fd_sc_hd__tapvpwrvgnd_1
XFILLER_16_146 VGND VGND VPWR VPWR sky130_fd_sc_hd__fill_2
XFILLER_16_135 VGND VGND VPWR VPWR sky130_fd_sc_hd__fill_2
XFILLER_27_219 VGND VGND VPWR VPWR sky130_fd_sc_hd__fill_1
Xmux_bottom_track_25.mux_l3_in_1_ mux_bottom_track_25.mux_l2_in_3_/X mux_bottom_track_25.mux_l2_in_2_/X
+ mux_bottom_track_25.mux_l3_in_1_/S mux_bottom_track_25.mux_l3_in_1_/X VGND VGND
+ VPWR VPWR sky130_fd_sc_hd__mux2_1
XFILLER_8_164 VGND VGND VPWR VPWR sky130_fd_sc_hd__decap_4
Xmux_right_track_8.mux_l1_in_1_ right_bottom_grid_pin_34_ chany_top_in[16] mux_right_track_8.mux_l1_in_1_/S
+ mux_right_track_8.mux_l1_in_1_/X VGND VGND VPWR VPWR sky130_fd_sc_hd__mux2_1
Xmux_top_track_0.mux_l1_in_1_ top_left_grid_pin_48_ top_left_grid_pin_46_ mux_top_track_0.mux_l1_in_1_/S
+ mux_top_track_0.mux_l1_in_1_/X VGND VGND VPWR VPWR sky130_fd_sc_hd__mux2_1
XFILLER_18_219 VGND VGND VPWR VPWR sky130_fd_sc_hd__fill_1
Xmux_bottom_track_9.mux_l4_in_0_ mux_bottom_track_9.mux_l3_in_1_/X mux_bottom_track_9.mux_l3_in_0_/X
+ mux_bottom_track_9.mux_l4_in_0_/S mux_bottom_track_9.mux_l4_in_0_/X VGND VGND VPWR
+ VPWR sky130_fd_sc_hd__mux2_1
XFILLER_5_9 VGND VGND VPWR VPWR sky130_fd_sc_hd__fill_1
XFILLER_5_101 VGND VGND VPWR VPWR sky130_fd_sc_hd__fill_2
XFILLER_5_112 VGND VGND VPWR VPWR sky130_fd_sc_hd__fill_2
XFILLER_2_104 VGND VGND VPWR VPWR sky130_fd_sc_hd__fill_1
Xmux_bottom_track_25.mux_l2_in_2_ chanx_left_in[18] chanx_left_in[9] mux_bottom_track_25.mux_l2_in_3_/S
+ mux_bottom_track_25.mux_l2_in_2_/X VGND VGND VPWR VPWR sky130_fd_sc_hd__mux2_1
Xmem_bottom_track_9.sky130_fd_sc_hd__dfxtp_1_0_ mux_bottom_track_5.mux_l5_in_0_/S
+ mux_bottom_track_9.mux_l1_in_2_/S clkbuf_3_1_0_prog_clk/X VGND VGND VPWR VPWR sky130_fd_sc_hd__dfxtp_1
XFILLER_0_29 VGND VGND VPWR VPWR sky130_fd_sc_hd__fill_2
Xmux_bottom_track_9.mux_l3_in_1_ mux_bottom_track_9.mux_l2_in_3_/X mux_bottom_track_9.mux_l2_in_2_/X
+ mux_bottom_track_9.mux_l3_in_1_/S mux_bottom_track_9.mux_l3_in_1_/X VGND VGND VPWR
+ VPWR sky130_fd_sc_hd__mux2_1
XFILLER_1_181 VGND VGND VPWR VPWR sky130_fd_sc_hd__fill_2
X_040_ _040_/HI _040_/LO VGND VGND VPWR VPWR sky130_fd_sc_hd__conb_1
Xmem_bottom_track_17.sky130_fd_sc_hd__dfxtp_1_2_ mux_bottom_track_17.mux_l2_in_3_/S
+ mux_bottom_track_17.mux_l3_in_0_/S clkbuf_3_3_0_prog_clk/X VGND VGND VPWR VPWR sky130_fd_sc_hd__dfxtp_1
XFILLER_18_47 VGND VGND VPWR VPWR sky130_fd_sc_hd__fill_1
XFILLER_1_3 VGND VGND VPWR VPWR sky130_fd_sc_hd__decap_8
XFILLER_7_218 VGND VGND VPWR VPWR sky130_fd_sc_hd__fill_2
Xmux_right_track_4.mux_l2_in_6_ chanx_left_in[5] chany_bottom_in[14] mux_right_track_4.mux_l2_in_7_/S
+ mux_right_track_4.mux_l2_in_6_/X VGND VGND VPWR VPWR sky130_fd_sc_hd__mux2_1
XFILLER_24_90 VGND VGND VPWR VPWR sky130_fd_sc_hd__fill_2
XFILLER_19_111 VGND VGND VPWR VPWR sky130_fd_sc_hd__decap_4
Xmux_bottom_track_9.mux_l2_in_2_ chanx_left_in[11] chanx_left_in[6] mux_bottom_track_9.mux_l2_in_2_/S
+ mux_bottom_track_9.mux_l2_in_2_/X VGND VGND VPWR VPWR sky130_fd_sc_hd__mux2_1
XFILLER_6_28 VGND VGND VPWR VPWR sky130_fd_sc_hd__decap_3
XFILLER_15_15 VGND VGND VPWR VPWR sky130_fd_sc_hd__decap_8
XPHY_186 VGND VPWR sky130_fd_sc_hd__tapvpwrvgnd_1
XFILLER_31_139 VGND VGND VPWR VPWR sky130_fd_sc_hd__fill_2
XPHY_175 VGND VPWR sky130_fd_sc_hd__tapvpwrvgnd_1
XPHY_164 VGND VPWR sky130_fd_sc_hd__tapvpwrvgnd_1
XFILLER_24_191 VGND VGND VPWR VPWR sky130_fd_sc_hd__fill_1
XPHY_153 VGND VPWR sky130_fd_sc_hd__tapvpwrvgnd_1
XPHY_142 VGND VPWR sky130_fd_sc_hd__tapvpwrvgnd_1
XPHY_131 VGND VPWR sky130_fd_sc_hd__tapvpwrvgnd_1
XPHY_120 VGND VPWR sky130_fd_sc_hd__tapvpwrvgnd_1
XFILLER_22_117 VGND VGND VPWR VPWR sky130_fd_sc_hd__fill_1
XFILLER_15_180 VGND VGND VPWR VPWR sky130_fd_sc_hd__decap_3
XPHY_0 VGND VGND VPWR VPWR sky130_fd_sc_hd__decap_3
XFILLER_13_139 VGND VGND VPWR VPWR sky130_fd_sc_hd__decap_3
Xmux_bottom_track_33.sky130_fd_sc_hd__buf_4_0_ mux_bottom_track_33.mux_l3_in_0_/X
+ _099_/A VGND VGND VPWR VPWR sky130_fd_sc_hd__buf_4
Xmux_bottom_track_25.mux_l3_in_0_ mux_bottom_track_25.mux_l2_in_1_/X mux_bottom_track_25.mux_l2_in_0_/X
+ mux_bottom_track_25.mux_l3_in_1_/S mux_bottom_track_25.mux_l3_in_0_/X VGND VGND
+ VPWR VPWR sky130_fd_sc_hd__mux2_1
XFILLER_8_154 VGND VGND VPWR VPWR sky130_fd_sc_hd__fill_1
Xmux_right_track_8.mux_l1_in_0_ chany_top_in[6] chany_top_in[3] mux_right_track_8.mux_l1_in_1_/S
+ mux_right_track_8.mux_l1_in_0_/X VGND VGND VPWR VPWR sky130_fd_sc_hd__mux2_1
Xmux_top_track_0.mux_l1_in_0_ top_left_grid_pin_44_ top_left_grid_pin_42_ mux_top_track_0.mux_l1_in_1_/S
+ mux_top_track_0.mux_l1_in_0_/X VGND VGND VPWR VPWR sky130_fd_sc_hd__mux2_1
Xclkbuf_2_0_0_prog_clk clkbuf_2_1_0_prog_clk/A clkbuf_2_0_0_prog_clk/X VGND VGND VPWR
+ VPWR sky130_fd_sc_hd__clkbuf_1
XFILLER_23_59 VGND VGND VPWR VPWR sky130_fd_sc_hd__fill_2
XFILLER_4_72 VGND VGND VPWR VPWR sky130_fd_sc_hd__fill_2
XFILLER_4_83 VGND VGND VPWR VPWR sky130_fd_sc_hd__decap_3
Xmux_right_track_8.sky130_fd_sc_hd__buf_4_0_ mux_right_track_8.mux_l4_in_0_/X _091_/A
+ VGND VGND VPWR VPWR sky130_fd_sc_hd__buf_4
Xmux_bottom_track_25.mux_l2_in_1_ bottom_left_grid_pin_48_ mux_bottom_track_25.mux_l1_in_2_/X
+ mux_bottom_track_25.mux_l2_in_3_/S mux_bottom_track_25.mux_l2_in_1_/X VGND VGND
+ VPWR VPWR sky130_fd_sc_hd__mux2_1
XFILLER_20_215 VGND VGND VPWR VPWR sky130_fd_sc_hd__decap_4
Xmux_bottom_track_9.mux_l3_in_0_ mux_bottom_track_9.mux_l2_in_1_/X mux_bottom_track_9.mux_l2_in_0_/X
+ mux_bottom_track_9.mux_l3_in_1_/S mux_bottom_track_9.mux_l3_in_0_/X VGND VGND VPWR
+ VPWR sky130_fd_sc_hd__mux2_1
XFILLER_1_171 VGND VGND VPWR VPWR sky130_fd_sc_hd__fill_1
XFILLER_18_26 VGND VGND VPWR VPWR sky130_fd_sc_hd__decap_4
Xmem_bottom_track_17.sky130_fd_sc_hd__dfxtp_1_1_ mux_bottom_track_17.mux_l1_in_1_/S
+ mux_bottom_track_17.mux_l2_in_3_/S clkbuf_3_3_0_prog_clk/X VGND VGND VPWR VPWR sky130_fd_sc_hd__dfxtp_1
XFILLER_11_215 VGND VGND VPWR VPWR sky130_fd_sc_hd__decap_4
XFILLER_11_204 VGND VGND VPWR VPWR sky130_fd_sc_hd__fill_2