* NGSPICE file created from sb_1__0_.ext - technology: EFS8A

* Black-box entry subcircuit for scs8hd_fill_2 abstract view
.subckt scs8hd_fill_2 vpwr vgnd
.ends

* Black-box entry subcircuit for scs8hd_dfxbp_1 abstract view
.subckt scs8hd_dfxbp_1 CLK D Q QN vgnd vpwr
.ends

* Black-box entry subcircuit for scs8hd_diode_2 abstract view
.subckt scs8hd_diode_2 DIODE vgnd vpwr
.ends

* Black-box entry subcircuit for scs8hd_fill_1 abstract view
.subckt scs8hd_fill_1 vgnd vpwr
.ends

* Black-box entry subcircuit for scs8hd_decap_4 abstract view
.subckt scs8hd_decap_4 vgnd vpwr
.ends

* Black-box entry subcircuit for scs8hd_decap_12 abstract view
.subckt scs8hd_decap_12 vgnd vpwr
.ends

* Black-box entry subcircuit for scs8hd_conb_1 abstract view
.subckt scs8hd_conb_1 HI LO vgnd vpwr
.ends

* Black-box entry subcircuit for scs8hd_mux2_1 abstract view
.subckt scs8hd_mux2_1 A0 A1 S X vgnd vpwr
.ends

* Black-box entry subcircuit for scs8hd_buf_2 abstract view
.subckt scs8hd_buf_2 A X vgnd vpwr
.ends

* Black-box entry subcircuit for scs8hd_decap_6 abstract view
.subckt scs8hd_decap_6 vgnd vpwr
.ends

* Black-box entry subcircuit for scs8hd_tapvpwrvgnd_1 abstract view
.subckt scs8hd_tapvpwrvgnd_1 vgnd vpwr
.ends

* Black-box entry subcircuit for scs8hd_decap_3 abstract view
.subckt scs8hd_decap_3 vgnd vpwr
.ends

* Black-box entry subcircuit for scs8hd_buf_1 abstract view
.subckt scs8hd_buf_1 A X vgnd vpwr
.ends

* Black-box entry subcircuit for scs8hd_decap_8 abstract view
.subckt scs8hd_decap_8 vgnd vpwr
.ends

.subckt sb_1__0_ ccff_head ccff_tail chanx_left_in[0] chanx_left_in[10] chanx_left_in[11]
+ chanx_left_in[12] chanx_left_in[13] chanx_left_in[14] chanx_left_in[15] chanx_left_in[16]
+ chanx_left_in[17] chanx_left_in[18] chanx_left_in[19] chanx_left_in[1] chanx_left_in[2]
+ chanx_left_in[3] chanx_left_in[4] chanx_left_in[5] chanx_left_in[6] chanx_left_in[7]
+ chanx_left_in[8] chanx_left_in[9] chanx_left_out[0] chanx_left_out[10] chanx_left_out[11]
+ chanx_left_out[12] chanx_left_out[13] chanx_left_out[14] chanx_left_out[15] chanx_left_out[16]
+ chanx_left_out[17] chanx_left_out[18] chanx_left_out[19] chanx_left_out[1] chanx_left_out[2]
+ chanx_left_out[3] chanx_left_out[4] chanx_left_out[5] chanx_left_out[6] chanx_left_out[7]
+ chanx_left_out[8] chanx_left_out[9] chanx_right_in[0] chanx_right_in[10] chanx_right_in[11]
+ chanx_right_in[12] chanx_right_in[13] chanx_right_in[14] chanx_right_in[15] chanx_right_in[16]
+ chanx_right_in[17] chanx_right_in[18] chanx_right_in[19] chanx_right_in[1] chanx_right_in[2]
+ chanx_right_in[3] chanx_right_in[4] chanx_right_in[5] chanx_right_in[6] chanx_right_in[7]
+ chanx_right_in[8] chanx_right_in[9] chanx_right_out[0] chanx_right_out[10] chanx_right_out[11]
+ chanx_right_out[12] chanx_right_out[13] chanx_right_out[14] chanx_right_out[15]
+ chanx_right_out[16] chanx_right_out[17] chanx_right_out[18] chanx_right_out[19]
+ chanx_right_out[1] chanx_right_out[2] chanx_right_out[3] chanx_right_out[4] chanx_right_out[5]
+ chanx_right_out[6] chanx_right_out[7] chanx_right_out[8] chanx_right_out[9] chany_top_in[0]
+ chany_top_in[10] chany_top_in[11] chany_top_in[12] chany_top_in[13] chany_top_in[14]
+ chany_top_in[15] chany_top_in[16] chany_top_in[17] chany_top_in[18] chany_top_in[19]
+ chany_top_in[1] chany_top_in[2] chany_top_in[3] chany_top_in[4] chany_top_in[5]
+ chany_top_in[6] chany_top_in[7] chany_top_in[8] chany_top_in[9] chany_top_out[0]
+ chany_top_out[10] chany_top_out[11] chany_top_out[12] chany_top_out[13] chany_top_out[14]
+ chany_top_out[15] chany_top_out[16] chany_top_out[17] chany_top_out[18] chany_top_out[19]
+ chany_top_out[1] chany_top_out[2] chany_top_out[3] chany_top_out[4] chany_top_out[5]
+ chany_top_out[6] chany_top_out[7] chany_top_out[8] chany_top_out[9] left_bottom_grid_pin_1_
+ left_top_grid_pin_42_ left_top_grid_pin_43_ left_top_grid_pin_44_ left_top_grid_pin_45_
+ left_top_grid_pin_46_ left_top_grid_pin_47_ left_top_grid_pin_48_ left_top_grid_pin_49_
+ prog_clk right_bottom_grid_pin_1_ right_top_grid_pin_42_ right_top_grid_pin_43_
+ right_top_grid_pin_44_ right_top_grid_pin_45_ right_top_grid_pin_46_ right_top_grid_pin_47_
+ right_top_grid_pin_48_ right_top_grid_pin_49_ top_left_grid_pin_34_ top_left_grid_pin_35_
+ top_left_grid_pin_36_ top_left_grid_pin_37_ top_left_grid_pin_38_ top_left_grid_pin_39_
+ top_left_grid_pin_40_ top_left_grid_pin_41_ vpwr vgnd
XFILLER_39_266 vpwr vgnd scs8hd_fill_2
Xmem_right_track_2.scs8hd_dfxbp_1_3_ prog_clk mux_right_track_2.mux_l3_in_0_/S mux_right_track_2.mux_l4_in_0_/S
+ mem_right_track_2.scs8hd_dfxbp_1_3_/QN vgnd vpwr scs8hd_dfxbp_1
XANTENNA_mux_right_track_0.mux_l2_in_3__A0 _060_/HI vgnd vpwr scs8hd_diode_2
XFILLER_26_74 vgnd vpwr scs8hd_fill_1
XFILLER_13_133 vpwr vgnd scs8hd_fill_2
XFILLER_42_51 vpwr vgnd scs8hd_fill_2
XFILLER_9_115 vpwr vgnd scs8hd_fill_2
XFILLER_13_177 vgnd vpwr scs8hd_decap_4
XANTENNA_mux_right_track_2.mux_l3_in_0__A0 mux_right_track_2.mux_l2_in_1_/X vgnd vpwr
+ scs8hd_diode_2
XFILLER_8_170 vpwr vgnd scs8hd_fill_2
XANTENNA_mux_left_track_25.mux_l3_in_0__A1 mux_left_track_25.mux_l2_in_0_/X vgnd vpwr
+ scs8hd_diode_2
XFILLER_42_228 vpwr vgnd scs8hd_fill_2
XFILLER_27_214 vgnd vpwr scs8hd_fill_1
XFILLER_6_129 vgnd vpwr scs8hd_decap_12
XFILLER_12_32 vgnd vpwr scs8hd_decap_12
XANTENNA_mux_top_track_36.mux_l2_in_0__A0 _048_/HI vgnd vpwr scs8hd_diode_2
XANTENNA__124__A _124_/A vgnd vpwr scs8hd_diode_2
XFILLER_5_184 vgnd vpwr scs8hd_decap_12
XFILLER_32_250 vpwr vgnd scs8hd_fill_2
XANTENNA_mux_right_track_4.mux_l1_in_0__A1 chany_top_in[1] vgnd vpwr scs8hd_diode_2
XANTENNA_mux_top_track_0.mux_l1_in_0__A0 top_left_grid_pin_36_ vgnd vpwr scs8hd_diode_2
XFILLER_15_206 vgnd vpwr scs8hd_decap_4
XFILLER_23_272 vgnd vpwr scs8hd_decap_4
X_062_ _062_/HI _062_/LO vgnd vpwr scs8hd_conb_1
XFILLER_23_53 vpwr vgnd scs8hd_fill_2
XFILLER_23_97 vpwr vgnd scs8hd_fill_2
XANTENNA_mux_left_track_33.mux_l1_in_2__A1 left_top_grid_pin_45_ vgnd vpwr scs8hd_diode_2
XFILLER_2_154 vgnd vpwr scs8hd_decap_12
XANTENNA__119__A _119_/A vgnd vpwr scs8hd_diode_2
XFILLER_21_209 vpwr vgnd scs8hd_fill_2
Xmux_top_track_10.mux_l3_in_0_ mux_top_track_10.mux_l2_in_1_/X mux_top_track_10.mux_l2_in_0_/X
+ mux_top_track_10.mux_l3_in_0_/S mux_top_track_10.mux_l3_in_0_/X vgnd vpwr scs8hd_mux2_1
XANTENNA_mux_top_track_28.mux_l2_in_0__A1 mux_top_track_28.mux_l1_in_0_/X vgnd vpwr
+ scs8hd_diode_2
XANTENNA_mem_left_track_5.scs8hd_dfxbp_1_1__CLK prog_clk vgnd vpwr scs8hd_diode_2
XANTENNA_mux_left_track_25.mux_l1_in_3__S mux_left_track_25.mux_l1_in_3_/S vgnd vpwr
+ scs8hd_diode_2
Xmem_left_track_1.scs8hd_dfxbp_1_2_ prog_clk mux_left_track_1.mux_l2_in_2_/S mux_left_track_1.mux_l3_in_0_/S
+ mem_left_track_1.scs8hd_dfxbp_1_2_/QN vgnd vpwr scs8hd_dfxbp_1
XFILLER_18_42 vpwr vgnd scs8hd_fill_2
XFILLER_18_64 vpwr vgnd scs8hd_fill_2
XFILLER_18_75 vpwr vgnd scs8hd_fill_2
XFILLER_11_220 vpwr vgnd scs8hd_fill_2
XFILLER_11_231 vpwr vgnd scs8hd_fill_2
XFILLER_11_275 vpwr vgnd scs8hd_fill_2
X_114_ _114_/A chany_top_out[11] vgnd vpwr scs8hd_buf_2
X_045_ _045_/HI _045_/LO vgnd vpwr scs8hd_conb_1
XFILLER_38_106 vpwr vgnd scs8hd_fill_2
Xmem_top_track_14.scs8hd_dfxbp_1_0_ prog_clk mux_top_track_12.mux_l2_in_0_/S mux_top_track_14.mux_l1_in_0_/S
+ mem_top_track_14.scs8hd_dfxbp_1_0_/QN vgnd vpwr scs8hd_dfxbp_1
XANTENNA_mux_left_track_33.mux_l2_in_1__A1 mux_left_track_33.mux_l1_in_2_/X vgnd vpwr
+ scs8hd_diode_2
XANTENNA_mux_left_track_17.mux_l2_in_0__S mux_left_track_17.mux_l2_in_0_/S vgnd vpwr
+ scs8hd_diode_2
XFILLER_4_227 vgnd vpwr scs8hd_decap_12
XFILLER_20_32 vpwr vgnd scs8hd_fill_2
XANTENNA_mem_right_track_16.scs8hd_dfxbp_1_2__D mux_right_track_16.mux_l2_in_0_/S
+ vgnd vpwr scs8hd_diode_2
XFILLER_29_41 vpwr vgnd scs8hd_fill_2
Xmux_top_track_10.mux_l2_in_1_ _035_/HI chanx_left_in[9] mux_top_track_10.mux_l2_in_0_/S
+ mux_top_track_10.mux_l2_in_1_/X vgnd vpwr scs8hd_mux2_1
XANTENNA_mem_top_track_36.scs8hd_dfxbp_1_0__CLK prog_clk vgnd vpwr scs8hd_diode_2
XANTENNA_mux_right_track_16.mux_l3_in_0__S mux_right_track_16.mux_l3_in_0_/S vgnd
+ vpwr scs8hd_diode_2
XFILLER_6_56 vgnd vpwr scs8hd_decap_12
XANTENNA_mux_left_track_33.scs8hd_buf_4_0__A mux_left_track_33.mux_l3_in_0_/X vgnd
+ vpwr scs8hd_diode_2
XANTENNA_mux_right_track_0.mux_l1_in_1__S mux_right_track_0.mux_l1_in_1_/S vgnd vpwr
+ scs8hd_diode_2
XFILLER_13_3 vgnd vpwr scs8hd_decap_12
XFILLER_19_161 vgnd vpwr scs8hd_decap_4
XFILLER_34_164 vpwr vgnd scs8hd_fill_2
XANTENNA_mux_right_track_2.mux_l2_in_1__A1 right_top_grid_pin_45_ vgnd vpwr scs8hd_diode_2
XFILLER_1_208 vgnd vpwr scs8hd_decap_12
XFILLER_25_175 vpwr vgnd scs8hd_fill_2
XFILLER_40_167 vgnd vpwr scs8hd_decap_6
XFILLER_40_145 vpwr vgnd scs8hd_fill_2
XFILLER_40_134 vgnd vpwr scs8hd_decap_6
XFILLER_31_53 vpwr vgnd scs8hd_fill_2
XFILLER_31_20 vgnd vpwr scs8hd_decap_4
XFILLER_25_197 vpwr vgnd scs8hd_fill_2
XFILLER_31_97 vpwr vgnd scs8hd_fill_2
XFILLER_31_75 vgnd vpwr scs8hd_decap_4
XFILLER_0_230 vgnd vpwr scs8hd_decap_12
XANTENNA_mem_top_track_10.scs8hd_dfxbp_1_1__D mux_top_track_10.mux_l1_in_0_/S vgnd
+ vpwr scs8hd_diode_2
XFILLER_31_123 vgnd vpwr scs8hd_decap_4
XANTENNA_mux_top_track_0.mux_l2_in_1__S mux_top_track_0.mux_l2_in_0_/S vgnd vpwr scs8hd_diode_2
XFILLER_16_186 vgnd vpwr scs8hd_fill_1
XPHY_170 vgnd vpwr scs8hd_tapvpwrvgnd_1
XANTENNA_mux_left_track_33.mux_l3_in_0__A1 mux_left_track_33.mux_l2_in_0_/X vgnd vpwr
+ scs8hd_diode_2
XPHY_181 vgnd vpwr scs8hd_tapvpwrvgnd_1
XPHY_192 vgnd vpwr scs8hd_tapvpwrvgnd_1
XFILLER_39_234 vgnd vpwr scs8hd_decap_4
XANTENNA_mem_top_track_30.scs8hd_dfxbp_1_1__D mux_top_track_30.mux_l1_in_0_/S vgnd
+ vpwr scs8hd_diode_2
XFILLER_22_112 vpwr vgnd scs8hd_fill_2
XFILLER_22_123 vgnd vpwr scs8hd_decap_3
XFILLER_22_145 vpwr vgnd scs8hd_fill_2
XANTENNA_mux_left_track_9.mux_l2_in_2__A0 left_top_grid_pin_46_ vgnd vpwr scs8hd_diode_2
XANTENNA_mux_top_track_6.mux_l1_in_2__S mux_top_track_6.mux_l1_in_0_/S vgnd vpwr scs8hd_diode_2
Xmem_right_track_2.scs8hd_dfxbp_1_2_ prog_clk mux_right_track_2.mux_l2_in_1_/S mux_right_track_2.mux_l3_in_0_/S
+ mem_right_track_2.scs8hd_dfxbp_1_2_/QN vgnd vpwr scs8hd_dfxbp_1
XANTENNA_mux_right_track_0.mux_l2_in_3__A1 chanx_left_in[12] vgnd vpwr scs8hd_diode_2
XFILLER_13_123 vgnd vpwr scs8hd_fill_1
XFILLER_13_156 vpwr vgnd scs8hd_fill_2
XFILLER_42_85 vpwr vgnd scs8hd_fill_2
XFILLER_9_127 vgnd vpwr scs8hd_decap_12
XANTENNA_mux_right_track_2.mux_l3_in_0__A1 mux_right_track_2.mux_l2_in_0_/X vgnd vpwr
+ scs8hd_diode_2
XANTENNA_mem_top_track_8.scs8hd_dfxbp_1_2__D mux_top_track_8.mux_l2_in_1_/S vgnd vpwr
+ scs8hd_diode_2
XFILLER_8_193 vgnd vpwr scs8hd_fill_1
XANTENNA_mem_top_track_6.scs8hd_dfxbp_1_2__CLK prog_clk vgnd vpwr scs8hd_diode_2
XFILLER_42_218 vgnd vpwr scs8hd_decap_4
XFILLER_10_126 vpwr vgnd scs8hd_fill_2
XFILLER_10_137 vpwr vgnd scs8hd_fill_2
XFILLER_10_159 vpwr vgnd scs8hd_fill_2
XFILLER_12_44 vgnd vpwr scs8hd_decap_12
XFILLER_12_99 vgnd vpwr scs8hd_decap_4
XANTENNA_mem_top_track_4.scs8hd_dfxbp_1_0__CLK prog_clk vgnd vpwr scs8hd_diode_2
XANTENNA_mux_top_track_36.mux_l2_in_0__A1 mux_top_track_36.mux_l1_in_0_/X vgnd vpwr
+ scs8hd_diode_2
XFILLER_18_215 vpwr vgnd scs8hd_fill_2
XFILLER_41_240 vpwr vgnd scs8hd_fill_2
XFILLER_5_196 vgnd vpwr scs8hd_decap_12
XANTENNA_mux_left_track_9.mux_l3_in_1__A0 mux_left_track_9.mux_l2_in_3_/X vgnd vpwr
+ scs8hd_diode_2
XFILLER_17_270 vpwr vgnd scs8hd_fill_2
XFILLER_24_207 vgnd vpwr scs8hd_decap_4
XANTENNA_mux_top_track_0.mux_l1_in_0__A1 top_left_grid_pin_34_ vgnd vpwr scs8hd_diode_2
XFILLER_23_240 vpwr vgnd scs8hd_fill_2
X_061_ _061_/HI _061_/LO vgnd vpwr scs8hd_conb_1
XFILLER_2_166 vgnd vpwr scs8hd_decap_12
XFILLER_14_262 vpwr vgnd scs8hd_fill_2
XANTENNA_mux_top_track_30.mux_l2_in_0__S mux_top_track_30.mux_l2_in_0_/S vgnd vpwr
+ scs8hd_diode_2
Xmem_left_track_9.scs8hd_dfxbp_1_3_ prog_clk mux_left_track_9.mux_l3_in_1_/S mux_left_track_9.mux_l4_in_0_/S
+ mem_left_track_9.scs8hd_dfxbp_1_3_/QN vgnd vpwr scs8hd_dfxbp_1
XFILLER_20_210 vgnd vpwr scs8hd_decap_4
XANTENNA_mux_left_track_1.mux_l2_in_2__S mux_left_track_1.mux_l2_in_2_/S vgnd vpwr
+ scs8hd_diode_2
XFILLER_20_243 vpwr vgnd scs8hd_fill_2
XFILLER_20_276 vgnd vpwr scs8hd_fill_1
Xmem_left_track_1.scs8hd_dfxbp_1_1_ prog_clk mux_left_track_1.mux_l1_in_0_/S mux_left_track_1.mux_l2_in_2_/S
+ mem_left_track_1.scs8hd_dfxbp_1_1_/QN vgnd vpwr scs8hd_dfxbp_1
XFILLER_18_32 vgnd vpwr scs8hd_decap_4
XFILLER_18_87 vpwr vgnd scs8hd_fill_2
X_113_ _113_/A chany_top_out[12] vgnd vpwr scs8hd_buf_2
XFILLER_34_97 vpwr vgnd scs8hd_fill_2
XFILLER_11_243 vgnd vpwr scs8hd_fill_1
XANTENNA_mux_left_track_9.mux_l4_in_0__A0 mux_left_track_9.mux_l3_in_1_/X vgnd vpwr
+ scs8hd_diode_2
XANTENNA_mux_top_track_12.scs8hd_buf_4_0__A mux_top_track_12.mux_l2_in_0_/X vgnd vpwr
+ scs8hd_diode_2
XANTENNA_mux_right_track_4.mux_l2_in_2__S mux_right_track_4.mux_l2_in_0_/S vgnd vpwr
+ scs8hd_diode_2
X_044_ _044_/HI _044_/LO vgnd vpwr scs8hd_conb_1
XANTENNA_mux_top_track_24.mux_l1_in_0__S mux_top_track_24.mux_l1_in_1_/S vgnd vpwr
+ scs8hd_diode_2
XANTENNA_mem_top_track_12.scs8hd_dfxbp_1_0__D mux_top_track_10.mux_l3_in_0_/S vgnd
+ vpwr scs8hd_diode_2
XANTENNA_mux_left_track_5.mux_l3_in_0__S mux_left_track_5.mux_l3_in_0_/S vgnd vpwr
+ scs8hd_diode_2
XFILLER_29_118 vpwr vgnd scs8hd_fill_2
XFILLER_37_195 vpwr vgnd scs8hd_fill_2
XFILLER_37_184 vgnd vpwr scs8hd_decap_3
XANTENNA_mem_top_track_32.scs8hd_dfxbp_1_0__D mux_top_track_30.mux_l2_in_0_/S vgnd
+ vpwr scs8hd_diode_2
XANTENNA_mux_right_track_8.mux_l3_in_0__S mux_right_track_8.mux_l3_in_0_/S vgnd vpwr
+ scs8hd_diode_2
XFILLER_4_239 vgnd vpwr scs8hd_decap_12
XFILLER_20_11 vpwr vgnd scs8hd_fill_2
XFILLER_20_66 vpwr vgnd scs8hd_fill_2
XFILLER_20_88 vgnd vpwr scs8hd_fill_1
XFILLER_29_86 vpwr vgnd scs8hd_fill_2
XFILLER_29_53 vpwr vgnd scs8hd_fill_2
Xmux_top_track_10.mux_l2_in_0_ chanx_right_in[19] mux_top_track_10.mux_l1_in_0_/X
+ mux_top_track_10.mux_l2_in_0_/S mux_top_track_10.mux_l2_in_0_/X vgnd vpwr scs8hd_mux2_1
XFILLER_6_68 vgnd vpwr scs8hd_decap_12
XFILLER_34_154 vpwr vgnd scs8hd_fill_2
XANTENNA_mux_top_track_38.scs8hd_buf_4_0__A mux_top_track_38.mux_l2_in_0_/X vgnd vpwr
+ scs8hd_diode_2
Xmem_top_track_6.scs8hd_dfxbp_1_2_ prog_clk mux_top_track_6.mux_l2_in_0_/S mux_top_track_6.mux_l3_in_0_/S
+ mem_top_track_6.scs8hd_dfxbp_1_2_/QN vgnd vpwr scs8hd_dfxbp_1
XFILLER_40_113 vpwr vgnd scs8hd_fill_2
XANTENNA_mem_right_track_8.scs8hd_dfxbp_1_3__CLK prog_clk vgnd vpwr scs8hd_diode_2
XFILLER_25_132 vpwr vgnd scs8hd_fill_2
XFILLER_15_77 vpwr vgnd scs8hd_fill_2
Xmux_top_track_18.scs8hd_buf_4_0_ mux_top_track_18.mux_l2_in_0_/X _116_/A vgnd vpwr
+ scs8hd_buf_1
XFILLER_0_242 vgnd vpwr scs8hd_decap_6
Xmux_right_track_8.mux_l2_in_3_ _033_/HI chanx_left_in[16] mux_right_track_8.mux_l2_in_0_/S
+ mux_right_track_8.mux_l2_in_3_/X vgnd vpwr scs8hd_mux2_1
XFILLER_16_121 vpwr vgnd scs8hd_fill_2
XFILLER_31_179 vpwr vgnd scs8hd_fill_2
XPHY_160 vgnd vpwr scs8hd_tapvpwrvgnd_1
XPHY_171 vgnd vpwr scs8hd_tapvpwrvgnd_1
XPHY_182 vgnd vpwr scs8hd_tapvpwrvgnd_1
XPHY_193 vgnd vpwr scs8hd_tapvpwrvgnd_1
XANTENNA_mem_top_track_16.scs8hd_dfxbp_1_0__CLK prog_clk vgnd vpwr scs8hd_diode_2
Xmux_top_track_0.mux_l2_in_3_ _034_/HI chanx_left_in[2] mux_top_track_0.mux_l2_in_0_/S
+ mux_top_track_0.mux_l2_in_3_/X vgnd vpwr scs8hd_mux2_1
XANTENNA_mux_left_track_9.mux_l2_in_2__A1 left_top_grid_pin_42_ vgnd vpwr scs8hd_diode_2
Xmem_right_track_2.scs8hd_dfxbp_1_1_ prog_clk mux_right_track_2.mux_l1_in_1_/S mux_right_track_2.mux_l2_in_1_/S
+ mem_right_track_2.scs8hd_dfxbp_1_1_/QN vgnd vpwr scs8hd_dfxbp_1
XFILLER_26_10 vpwr vgnd scs8hd_fill_2
XFILLER_26_43 vpwr vgnd scs8hd_fill_2
XFILLER_9_139 vgnd vpwr scs8hd_decap_8
XFILLER_42_75 vgnd vpwr scs8hd_fill_1
XANTENNA_mux_left_track_33.mux_l1_in_1__S mux_left_track_33.mux_l1_in_0_/S vgnd vpwr
+ scs8hd_diode_2
XANTENNA_mux_right_track_32.mux_l2_in_1__S mux_right_track_32.mux_l2_in_0_/S vgnd
+ vpwr scs8hd_diode_2
XANTENNA_mux_top_track_10.mux_l2_in_0__A0 chanx_right_in[19] vgnd vpwr scs8hd_diode_2
XFILLER_8_183 vpwr vgnd scs8hd_fill_2
XFILLER_10_105 vgnd vpwr scs8hd_decap_12
XFILLER_10_149 vpwr vgnd scs8hd_fill_2
XFILLER_12_56 vgnd vpwr scs8hd_decap_12
XANTENNA_mux_right_track_4.mux_l1_in_3__A0 right_top_grid_pin_46_ vgnd vpwr scs8hd_diode_2
XFILLER_37_53 vpwr vgnd scs8hd_fill_2
XFILLER_37_20 vpwr vgnd scs8hd_fill_2
XFILLER_18_227 vpwr vgnd scs8hd_fill_2
XFILLER_38_6 vpwr vgnd scs8hd_fill_2
XANTENNA_mem_left_track_17.scs8hd_dfxbp_1_1__CLK prog_clk vgnd vpwr scs8hd_diode_2
XANTENNA_mux_left_track_9.mux_l3_in_1__A1 mux_left_track_9.mux_l2_in_2_/X vgnd vpwr
+ scs8hd_diode_2
XFILLER_17_260 vpwr vgnd scs8hd_fill_2
XFILLER_24_219 vgnd vpwr scs8hd_fill_1
Xmux_right_track_8.mux_l4_in_0_ mux_right_track_8.mux_l3_in_1_/X mux_right_track_8.mux_l3_in_0_/X
+ mux_right_track_8.mux_l4_in_0_/S mux_right_track_8.mux_l4_in_0_/X vgnd vpwr scs8hd_mux2_1
XFILLER_23_66 vgnd vpwr scs8hd_decap_4
X_060_ _060_/HI _060_/LO vgnd vpwr scs8hd_conb_1
XFILLER_3_3 vgnd vpwr scs8hd_decap_12
Xmux_top_track_0.mux_l4_in_0_ mux_top_track_0.mux_l3_in_1_/X mux_top_track_0.mux_l3_in_0_/X
+ mux_top_track_0.mux_l4_in_0_/S mux_top_track_0.mux_l4_in_0_/X vgnd vpwr scs8hd_mux2_1
XANTENNA_mux_top_track_16.mux_l2_in_0__S mux_top_track_16.mux_l2_in_0_/S vgnd vpwr
+ scs8hd_diode_2
XFILLER_0_15 vgnd vpwr scs8hd_decap_12
XFILLER_2_178 vgnd vpwr scs8hd_decap_12
XFILLER_14_274 vgnd vpwr scs8hd_fill_1
XFILLER_36_3 vpwr vgnd scs8hd_fill_2
XANTENNA_mux_right_track_4.mux_l2_in_2__A0 mux_right_track_4.mux_l1_in_5_/X vgnd vpwr
+ scs8hd_diode_2
Xmem_left_track_9.scs8hd_dfxbp_1_2_ prog_clk mux_left_track_9.mux_l2_in_0_/S mux_left_track_9.mux_l3_in_1_/S
+ mem_left_track_9.scs8hd_dfxbp_1_2_/QN vgnd vpwr scs8hd_dfxbp_1
XFILLER_18_11 vpwr vgnd scs8hd_fill_2
XFILLER_18_22 vgnd vpwr scs8hd_decap_6
XFILLER_34_10 vpwr vgnd scs8hd_fill_2
Xmem_left_track_1.scs8hd_dfxbp_1_0_ prog_clk mux_right_track_32.mux_l3_in_0_/S mux_left_track_1.mux_l1_in_0_/S
+ mem_left_track_1.scs8hd_dfxbp_1_0_/QN vgnd vpwr scs8hd_dfxbp_1
X_112_ top_left_grid_pin_35_ chany_top_out[13] vgnd vpwr scs8hd_buf_2
X_043_ _043_/HI _043_/LO vgnd vpwr scs8hd_conb_1
XANTENNA_mux_left_track_9.mux_l4_in_0__A1 mux_left_track_9.mux_l3_in_0_/X vgnd vpwr
+ scs8hd_diode_2
Xmux_right_track_8.mux_l3_in_1_ mux_right_track_8.mux_l2_in_3_/X mux_right_track_8.mux_l2_in_2_/X
+ mux_right_track_8.mux_l3_in_0_/S mux_right_track_8.mux_l3_in_1_/X vgnd vpwr scs8hd_mux2_1
Xmux_top_track_0.mux_l3_in_1_ mux_top_track_0.mux_l2_in_3_/X mux_top_track_0.mux_l2_in_2_/X
+ mux_top_track_0.mux_l3_in_1_/S mux_top_track_0.mux_l3_in_1_/X vgnd vpwr scs8hd_mux2_1
XFILLER_20_23 vgnd vpwr scs8hd_decap_4
XFILLER_20_45 vpwr vgnd scs8hd_fill_2
XFILLER_29_65 vgnd vpwr scs8hd_decap_3
XFILLER_29_21 vgnd vpwr scs8hd_fill_1
XANTENNA_mux_right_track_4.mux_l3_in_1__A0 mux_right_track_4.mux_l2_in_3_/X vgnd vpwr
+ scs8hd_diode_2
XFILLER_34_111 vpwr vgnd scs8hd_fill_2
XFILLER_34_188 vpwr vgnd scs8hd_fill_2
XANTENNA_mem_right_track_0.scs8hd_dfxbp_1_2__D mux_right_track_0.mux_l2_in_1_/S vgnd
+ vpwr scs8hd_diode_2
Xmem_top_track_6.scs8hd_dfxbp_1_1_ prog_clk mux_top_track_6.mux_l1_in_0_/S mux_top_track_6.mux_l2_in_0_/S
+ mem_top_track_6.scs8hd_dfxbp_1_1_/QN vgnd vpwr scs8hd_dfxbp_1
XFILLER_25_155 vgnd vpwr scs8hd_fill_1
XANTENNA_mux_left_track_25.mux_l2_in_1__S mux_left_track_25.mux_l2_in_0_/S vgnd vpwr
+ scs8hd_diode_2
Xmux_right_track_8.mux_l2_in_2_ chanx_left_in[6] right_bottom_grid_pin_1_ mux_right_track_8.mux_l2_in_0_/S
+ mux_right_track_8.mux_l2_in_2_/X vgnd vpwr scs8hd_mux2_1
XFILLER_16_100 vgnd vpwr scs8hd_decap_4
XFILLER_31_169 vpwr vgnd scs8hd_fill_2
XFILLER_31_114 vpwr vgnd scs8hd_fill_2
XPHY_150 vgnd vpwr scs8hd_tapvpwrvgnd_1
XPHY_161 vgnd vpwr scs8hd_tapvpwrvgnd_1
XFILLER_16_177 vgnd vpwr scs8hd_decap_3
XPHY_172 vgnd vpwr scs8hd_tapvpwrvgnd_1
XPHY_183 vgnd vpwr scs8hd_tapvpwrvgnd_1
XPHY_194 vgnd vpwr scs8hd_tapvpwrvgnd_1
Xmux_top_track_0.mux_l2_in_2_ chanx_left_in[0] chanx_right_in[2] mux_top_track_0.mux_l2_in_0_/S
+ mux_top_track_0.mux_l2_in_2_/X vgnd vpwr scs8hd_mux2_1
Xmem_top_track_22.scs8hd_dfxbp_1_1_ prog_clk mux_top_track_22.mux_l1_in_1_/S mux_top_track_22.mux_l2_in_0_/S
+ mem_top_track_22.scs8hd_dfxbp_1_1_/QN vgnd vpwr scs8hd_dfxbp_1
XFILLER_30_191 vgnd vpwr scs8hd_decap_4
Xmux_top_track_10.mux_l1_in_0_ chanx_right_in[9] top_left_grid_pin_35_ mux_top_track_10.mux_l1_in_0_/S
+ mux_top_track_10.mux_l1_in_0_/X vgnd vpwr scs8hd_mux2_1
XANTENNA_mux_top_track_2.mux_l1_in_1__A0 top_left_grid_pin_41_ vgnd vpwr scs8hd_diode_2
XANTENNA_mux_right_track_4.mux_l4_in_0__A0 mux_right_track_4.mux_l3_in_1_/X vgnd vpwr
+ scs8hd_diode_2
Xmem_right_track_2.scs8hd_dfxbp_1_0_ prog_clk mux_right_track_0.mux_l4_in_0_/S mux_right_track_2.mux_l1_in_1_/S
+ mem_right_track_2.scs8hd_dfxbp_1_0_/QN vgnd vpwr scs8hd_dfxbp_1
XFILLER_26_66 vpwr vgnd scs8hd_fill_2
XFILLER_42_32 vgnd vpwr scs8hd_decap_3
XFILLER_42_10 vpwr vgnd scs8hd_fill_2
Xmux_top_track_22.mux_l2_in_0_ mux_top_track_22.mux_l1_in_1_/X mux_top_track_22.mux_l1_in_0_/X
+ mux_top_track_22.mux_l2_in_0_/S mux_top_track_22.mux_l2_in_0_/X vgnd vpwr scs8hd_mux2_1
XFILLER_26_88 vpwr vgnd scs8hd_fill_2
XFILLER_13_114 vpwr vgnd scs8hd_fill_2
XFILLER_21_180 vgnd vpwr scs8hd_fill_1
XFILLER_36_206 vpwr vgnd scs8hd_fill_2
XFILLER_3_59 vpwr vgnd scs8hd_fill_2
XFILLER_3_15 vgnd vpwr scs8hd_decap_12
XFILLER_36_239 vpwr vgnd scs8hd_fill_2
XANTENNA_mux_top_track_10.mux_l2_in_0__A1 mux_top_track_10.mux_l1_in_0_/X vgnd vpwr
+ scs8hd_diode_2
XFILLER_42_209 vpwr vgnd scs8hd_fill_2
XFILLER_27_217 vpwr vgnd scs8hd_fill_2
XANTENNA_mux_left_track_3.mux_l1_in_0__S mux_left_track_3.mux_l1_in_0_/S vgnd vpwr
+ scs8hd_diode_2
XFILLER_35_272 vgnd vpwr scs8hd_decap_4
XANTENNA_mux_right_track_4.mux_l1_in_3__A1 right_top_grid_pin_45_ vgnd vpwr scs8hd_diode_2
XFILLER_12_68 vgnd vpwr scs8hd_decap_12
XFILLER_18_206 vpwr vgnd scs8hd_fill_2
XFILLER_41_220 vgnd vpwr scs8hd_fill_1
XFILLER_37_98 vpwr vgnd scs8hd_fill_2
XFILLER_37_43 vgnd vpwr scs8hd_fill_1
XANTENNA_mem_left_track_3.scs8hd_dfxbp_1_2__CLK prog_clk vgnd vpwr scs8hd_diode_2
XFILLER_5_110 vgnd vpwr scs8hd_decap_12
XANTENNA_mux_top_track_2.mux_l1_in_2__S mux_top_track_2.mux_l1_in_1_/S vgnd vpwr scs8hd_diode_2
XANTENNA_mux_top_track_2.mux_l2_in_0__A0 mux_top_track_2.mux_l1_in_1_/X vgnd vpwr
+ scs8hd_diode_2
XANTENNA_mem_left_track_1.scs8hd_dfxbp_1_0__CLK prog_clk vgnd vpwr scs8hd_diode_2
XFILLER_4_80 vgnd vpwr scs8hd_decap_12
Xmux_top_track_22.mux_l1_in_1_ _042_/HI chanx_left_in[17] mux_top_track_22.mux_l1_in_1_/S
+ mux_top_track_22.mux_l1_in_1_/X vgnd vpwr scs8hd_mux2_1
XFILLER_23_220 vpwr vgnd scs8hd_fill_2
XANTENNA_mux_top_track_6.mux_l2_in_0__S mux_top_track_6.mux_l2_in_0_/S vgnd vpwr scs8hd_diode_2
XFILLER_23_23 vpwr vgnd scs8hd_fill_2
XFILLER_0_27 vgnd vpwr scs8hd_decap_4
XFILLER_29_3 vgnd vpwr scs8hd_fill_1
XANTENNA_mux_right_track_4.mux_l2_in_2__A1 mux_right_track_4.mux_l1_in_4_/X vgnd vpwr
+ scs8hd_diode_2
Xmem_left_track_9.scs8hd_dfxbp_1_1_ prog_clk mux_left_track_9.mux_l1_in_0_/S mux_left_track_9.mux_l2_in_0_/S
+ mem_left_track_9.scs8hd_dfxbp_1_1_/QN vgnd vpwr scs8hd_dfxbp_1
XANTENNA_mem_top_track_34.scs8hd_dfxbp_1_1__CLK prog_clk vgnd vpwr scs8hd_diode_2
Xmux_top_track_34.scs8hd_buf_4_0_ mux_top_track_34.mux_l2_in_0_/X _108_/A vgnd vpwr
+ scs8hd_buf_1
XANTENNA_mem_right_track_2.scs8hd_dfxbp_1_1__D mux_right_track_2.mux_l1_in_1_/S vgnd
+ vpwr scs8hd_diode_2
XANTENNA_mux_top_track_0.mux_l2_in_2__A0 chanx_left_in[0] vgnd vpwr scs8hd_diode_2
XFILLER_20_256 vgnd vpwr scs8hd_decap_8
XFILLER_20_267 vgnd vpwr scs8hd_decap_8
XANTENNA_mem_right_track_16.scs8hd_dfxbp_1_0__CLK prog_clk vgnd vpwr scs8hd_diode_2
XFILLER_34_88 vpwr vgnd scs8hd_fill_2
XFILLER_34_77 vpwr vgnd scs8hd_fill_2
XFILLER_34_55 vpwr vgnd scs8hd_fill_2
X_111_ _111_/A chany_top_out[14] vgnd vpwr scs8hd_buf_2
X_042_ _042_/HI _042_/LO vgnd vpwr scs8hd_conb_1
XFILLER_7_249 vgnd vpwr scs8hd_decap_12
XFILLER_11_267 vgnd vpwr scs8hd_decap_8
XANTENNA_mem_top_track_16.scs8hd_dfxbp_1_1__D mux_top_track_16.mux_l1_in_1_/S vgnd
+ vpwr scs8hd_diode_2
Xmux_right_track_8.mux_l3_in_0_ mux_right_track_8.mux_l2_in_1_/X mux_right_track_8.mux_l2_in_0_/X
+ mux_right_track_8.mux_l3_in_0_/S mux_right_track_8.mux_l3_in_0_/X vgnd vpwr scs8hd_mux2_1
XFILLER_37_131 vpwr vgnd scs8hd_fill_2
XFILLER_29_109 vgnd vpwr scs8hd_decap_3
XFILLER_37_175 vpwr vgnd scs8hd_fill_2
XFILLER_37_164 vpwr vgnd scs8hd_fill_2
Xmux_top_track_0.mux_l3_in_0_ mux_top_track_0.mux_l2_in_1_/X mux_top_track_0.mux_l2_in_0_/X
+ mux_top_track_0.mux_l3_in_1_/S mux_top_track_0.mux_l3_in_0_/X vgnd vpwr scs8hd_mux2_1
XANTENNA__072__A chanx_right_in[12] vgnd vpwr scs8hd_diode_2
XFILLER_28_197 vgnd vpwr scs8hd_decap_3
XFILLER_28_164 vpwr vgnd scs8hd_fill_2
XFILLER_28_131 vpwr vgnd scs8hd_fill_2
XANTENNA_mem_top_track_36.scs8hd_dfxbp_1_1__D mux_top_track_36.mux_l1_in_0_/S vgnd
+ vpwr scs8hd_diode_2
XANTENNA_mux_right_track_4.mux_l3_in_1__A1 mux_right_track_4.mux_l2_in_2_/X vgnd vpwr
+ scs8hd_diode_2
XFILLER_6_15 vgnd vpwr scs8hd_decap_12
XANTENNA_mux_top_track_0.mux_l3_in_1__A0 mux_top_track_0.mux_l2_in_3_/X vgnd vpwr
+ scs8hd_diode_2
XFILLER_20_7 vpwr vgnd scs8hd_fill_2
XFILLER_19_131 vpwr vgnd scs8hd_fill_2
XANTENNA_mux_top_track_20.mux_l1_in_0__S mux_top_track_20.mux_l1_in_1_/S vgnd vpwr
+ scs8hd_diode_2
XFILLER_34_145 vpwr vgnd scs8hd_fill_2
XFILLER_34_134 vpwr vgnd scs8hd_fill_2
XFILLER_34_101 vgnd vpwr scs8hd_fill_1
XFILLER_19_175 vpwr vgnd scs8hd_fill_2
Xmem_top_track_6.scs8hd_dfxbp_1_0_ prog_clk mux_top_track_4.mux_l3_in_0_/S mux_top_track_6.mux_l1_in_0_/S
+ mem_top_track_6.scs8hd_dfxbp_1_0_/QN vgnd vpwr scs8hd_dfxbp_1
XANTENNA_mux_right_track_0.mux_l2_in_2__S mux_right_track_0.mux_l2_in_1_/S vgnd vpwr
+ scs8hd_diode_2
XANTENNA_mux_left_track_1.mux_l3_in_0__S mux_left_track_1.mux_l3_in_0_/S vgnd vpwr
+ scs8hd_diode_2
XANTENNA__067__A chanx_right_in[17] vgnd vpwr scs8hd_diode_2
XFILLER_31_12 vpwr vgnd scs8hd_fill_2
XANTENNA_mem_left_track_25.scs8hd_dfxbp_1_1__D mux_left_track_25.mux_l1_in_3_/S vgnd
+ vpwr scs8hd_diode_2
XANTENNA_mem_left_track_33.scs8hd_dfxbp_1_0__CLK prog_clk vgnd vpwr scs8hd_diode_2
XFILLER_0_211 vgnd vpwr scs8hd_decap_6
Xmux_right_track_8.mux_l2_in_1_ right_top_grid_pin_46_ right_top_grid_pin_42_ mux_right_track_8.mux_l2_in_0_/S
+ mux_right_track_8.mux_l2_in_1_/X vgnd vpwr scs8hd_mux2_1
XFILLER_16_134 vgnd vpwr scs8hd_decap_8
XFILLER_16_145 vgnd vpwr scs8hd_decap_6
XANTENNA_mux_right_track_4.mux_l3_in_0__S mux_right_track_4.mux_l3_in_0_/S vgnd vpwr
+ scs8hd_diode_2
XPHY_140 vgnd vpwr scs8hd_tapvpwrvgnd_1
XPHY_151 vgnd vpwr scs8hd_tapvpwrvgnd_1
XPHY_162 vgnd vpwr scs8hd_tapvpwrvgnd_1
XPHY_173 vgnd vpwr scs8hd_tapvpwrvgnd_1
XPHY_184 vgnd vpwr scs8hd_tapvpwrvgnd_1
XPHY_195 vgnd vpwr scs8hd_tapvpwrvgnd_1
Xmux_top_track_0.mux_l2_in_1_ chanx_right_in[1] top_left_grid_pin_40_ mux_top_track_0.mux_l2_in_0_/S
+ mux_top_track_0.mux_l2_in_1_/X vgnd vpwr scs8hd_mux2_1
XFILLER_11_3 vgnd vpwr scs8hd_decap_12
XANTENNA_mem_top_track_2.scs8hd_dfxbp_1_1__CLK prog_clk vgnd vpwr scs8hd_diode_2
Xmem_top_track_22.scs8hd_dfxbp_1_0_ prog_clk mux_top_track_20.mux_l2_in_0_/S mux_top_track_22.mux_l1_in_1_/S
+ mem_top_track_22.scs8hd_dfxbp_1_0_/QN vgnd vpwr scs8hd_dfxbp_1
XFILLER_30_170 vpwr vgnd scs8hd_fill_2
XANTENNA_mux_right_track_4.mux_l4_in_0__A1 mux_right_track_4.mux_l3_in_0_/X vgnd vpwr
+ scs8hd_diode_2
XANTENNA_mux_left_track_1.mux_l1_in_1__A0 chanx_right_in[2] vgnd vpwr scs8hd_diode_2
XANTENNA_mux_top_track_2.mux_l1_in_1__A1 top_left_grid_pin_39_ vgnd vpwr scs8hd_diode_2
XFILLER_26_23 vpwr vgnd scs8hd_fill_2
XFILLER_42_99 vpwr vgnd scs8hd_fill_2
XFILLER_42_55 vpwr vgnd scs8hd_fill_2
XFILLER_42_44 vgnd vpwr scs8hd_decap_4
XFILLER_9_119 vgnd vpwr scs8hd_decap_3
XANTENNA_mux_top_track_0.mux_l4_in_0__A0 mux_top_track_0.mux_l3_in_1_/X vgnd vpwr
+ scs8hd_diode_2
XFILLER_21_170 vpwr vgnd scs8hd_fill_2
Xmux_left_track_9.scs8hd_buf_4_0_ mux_left_track_9.mux_l4_in_0_/X _081_/A vgnd vpwr
+ scs8hd_buf_1
XFILLER_3_27 vgnd vpwr scs8hd_decap_12
XFILLER_36_218 vgnd vpwr scs8hd_decap_3
XFILLER_29_270 vpwr vgnd scs8hd_fill_2
XFILLER_8_196 vgnd vpwr scs8hd_decap_4
XFILLER_8_141 vgnd vpwr scs8hd_decap_12
XFILLER_12_170 vpwr vgnd scs8hd_fill_2
XFILLER_35_262 vpwr vgnd scs8hd_fill_2
XFILLER_35_240 vpwr vgnd scs8hd_fill_2
XANTENNA_mem_right_track_4.scs8hd_dfxbp_1_0__D mux_right_track_2.mux_l4_in_0_/S vgnd
+ vpwr scs8hd_diode_2
XANTENNA__080__A chanx_right_in[4] vgnd vpwr scs8hd_diode_2
XFILLER_37_66 vgnd vpwr scs8hd_decap_3
XFILLER_37_33 vpwr vgnd scs8hd_fill_2
XFILLER_41_254 vpwr vgnd scs8hd_fill_2
XFILLER_41_276 vgnd vpwr scs8hd_fill_1
Xmux_top_track_2.scs8hd_buf_4_0_ mux_top_track_2.mux_l3_in_0_/X _124_/A vgnd vpwr
+ scs8hd_buf_1
XFILLER_17_240 vpwr vgnd scs8hd_fill_2
XANTENNA_mux_top_track_2.mux_l2_in_0__A1 mux_top_track_2.mux_l1_in_0_/X vgnd vpwr
+ scs8hd_diode_2
XFILLER_32_276 vgnd vpwr scs8hd_fill_1
XFILLER_32_254 vpwr vgnd scs8hd_fill_2
XANTENNA_mem_top_track_18.scs8hd_dfxbp_1_0__D mux_top_track_16.mux_l2_in_0_/S vgnd
+ vpwr scs8hd_diode_2
XANTENNA_mux_top_track_14.mux_l1_in_0__A0 chanx_right_in[12] vgnd vpwr scs8hd_diode_2
XANTENNA_mux_left_track_1.mux_l2_in_0__A0 mux_left_track_1.mux_l1_in_1_/X vgnd vpwr
+ scs8hd_diode_2
Xmux_top_track_22.mux_l1_in_0_ chanx_right_in[17] top_left_grid_pin_41_ mux_top_track_22.mux_l1_in_1_/S
+ mux_top_track_22.mux_l1_in_0_/X vgnd vpwr scs8hd_mux2_1
XANTENNA__075__A chanx_right_in[9] vgnd vpwr scs8hd_diode_2
XFILLER_23_57 vpwr vgnd scs8hd_fill_2
XFILLER_23_276 vgnd vpwr scs8hd_fill_1
Xmux_top_track_34.mux_l2_in_0_ _047_/HI mux_top_track_34.mux_l1_in_0_/X mux_top_track_34.mux_l2_in_0_/S
+ mux_top_track_34.mux_l2_in_0_/X vgnd vpwr scs8hd_mux2_1
XANTENNA_mem_top_track_38.scs8hd_dfxbp_1_0__D mux_top_track_36.mux_l2_in_0_/S vgnd
+ vpwr scs8hd_diode_2
XFILLER_9_59 vpwr vgnd scs8hd_fill_2
XFILLER_9_15 vgnd vpwr scs8hd_decap_12
XFILLER_14_276 vgnd vpwr scs8hd_fill_1
Xmem_left_track_9.scs8hd_dfxbp_1_0_ prog_clk mux_left_track_5.mux_l4_in_0_/S mux_left_track_9.mux_l1_in_0_/S
+ mem_left_track_9.scs8hd_dfxbp_1_0_/QN vgnd vpwr scs8hd_dfxbp_1
XANTENNA_mux_top_track_0.mux_l2_in_2__A1 chanx_right_in[2] vgnd vpwr scs8hd_diode_2
XFILLER_18_46 vgnd vpwr scs8hd_decap_3
XFILLER_18_79 vpwr vgnd scs8hd_fill_2