* NGSPICE file created from sb_1__1_.ext - technology: EFS8A

* Black-box entry subcircuit for scs8hd_decap_3 abstract view
.subckt scs8hd_decap_3 vgnd vpwr
.ends

* Black-box entry subcircuit for scs8hd_dfxbp_1 abstract view
.subckt scs8hd_dfxbp_1 CLK D Q QN vgnd vpwr
.ends

* Black-box entry subcircuit for scs8hd_diode_2 abstract view
.subckt scs8hd_diode_2 DIODE vgnd vpwr
.ends

* Black-box entry subcircuit for scs8hd_buf_1 abstract view
.subckt scs8hd_buf_1 A X vgnd vpwr
.ends

* Black-box entry subcircuit for scs8hd_fill_2 abstract view
.subckt scs8hd_fill_2 vpwr vgnd
.ends

* Black-box entry subcircuit for scs8hd_mux2_1 abstract view
.subckt scs8hd_mux2_1 A0 A1 S X vgnd vpwr
.ends

* Black-box entry subcircuit for scs8hd_decap_4 abstract view
.subckt scs8hd_decap_4 vgnd vpwr
.ends

* Black-box entry subcircuit for scs8hd_fill_1 abstract view
.subckt scs8hd_fill_1 vgnd vpwr
.ends

* Black-box entry subcircuit for scs8hd_buf_2 abstract view
.subckt scs8hd_buf_2 A X vgnd vpwr
.ends

* Black-box entry subcircuit for scs8hd_conb_1 abstract view
.subckt scs8hd_conb_1 HI LO vgnd vpwr
.ends

* Black-box entry subcircuit for scs8hd_tapvpwrvgnd_1 abstract view
.subckt scs8hd_tapvpwrvgnd_1 vgnd vpwr
.ends

* Black-box entry subcircuit for scs8hd_decap_8 abstract view
.subckt scs8hd_decap_8 vgnd vpwr
.ends

* Black-box entry subcircuit for scs8hd_decap_6 abstract view
.subckt scs8hd_decap_6 vgnd vpwr
.ends

* Black-box entry subcircuit for scs8hd_decap_12 abstract view
.subckt scs8hd_decap_12 vgnd vpwr
.ends

.subckt sb_1__1_ bottom_left_grid_pin_34_ bottom_left_grid_pin_35_ bottom_left_grid_pin_36_
+ bottom_left_grid_pin_37_ bottom_left_grid_pin_38_ bottom_left_grid_pin_39_ bottom_left_grid_pin_40_
+ bottom_left_grid_pin_41_ ccff_head ccff_tail chanx_left_in[0] chanx_left_in[10]
+ chanx_left_in[11] chanx_left_in[12] chanx_left_in[13] chanx_left_in[14] chanx_left_in[15]
+ chanx_left_in[16] chanx_left_in[17] chanx_left_in[18] chanx_left_in[19] chanx_left_in[1]
+ chanx_left_in[2] chanx_left_in[3] chanx_left_in[4] chanx_left_in[5] chanx_left_in[6]
+ chanx_left_in[7] chanx_left_in[8] chanx_left_in[9] chanx_left_out[0] chanx_left_out[10]
+ chanx_left_out[11] chanx_left_out[12] chanx_left_out[13] chanx_left_out[14] chanx_left_out[15]
+ chanx_left_out[16] chanx_left_out[17] chanx_left_out[18] chanx_left_out[19] chanx_left_out[1]
+ chanx_left_out[2] chanx_left_out[3] chanx_left_out[4] chanx_left_out[5] chanx_left_out[6]
+ chanx_left_out[7] chanx_left_out[8] chanx_left_out[9] chanx_right_in[0] chanx_right_in[10]
+ chanx_right_in[11] chanx_right_in[12] chanx_right_in[13] chanx_right_in[14] chanx_right_in[15]
+ chanx_right_in[16] chanx_right_in[17] chanx_right_in[18] chanx_right_in[19] chanx_right_in[1]
+ chanx_right_in[2] chanx_right_in[3] chanx_right_in[4] chanx_right_in[5] chanx_right_in[6]
+ chanx_right_in[7] chanx_right_in[8] chanx_right_in[9] chanx_right_out[0] chanx_right_out[10]
+ chanx_right_out[11] chanx_right_out[12] chanx_right_out[13] chanx_right_out[14]
+ chanx_right_out[15] chanx_right_out[16] chanx_right_out[17] chanx_right_out[18]
+ chanx_right_out[19] chanx_right_out[1] chanx_right_out[2] chanx_right_out[3] chanx_right_out[4]
+ chanx_right_out[5] chanx_right_out[6] chanx_right_out[7] chanx_right_out[8] chanx_right_out[9]
+ chany_bottom_in[0] chany_bottom_in[10] chany_bottom_in[11] chany_bottom_in[12] chany_bottom_in[13]
+ chany_bottom_in[14] chany_bottom_in[15] chany_bottom_in[16] chany_bottom_in[17]
+ chany_bottom_in[18] chany_bottom_in[19] chany_bottom_in[1] chany_bottom_in[2] chany_bottom_in[3]
+ chany_bottom_in[4] chany_bottom_in[5] chany_bottom_in[6] chany_bottom_in[7] chany_bottom_in[8]
+ chany_bottom_in[9] chany_bottom_out[0] chany_bottom_out[10] chany_bottom_out[11]
+ chany_bottom_out[12] chany_bottom_out[13] chany_bottom_out[14] chany_bottom_out[15]
+ chany_bottom_out[16] chany_bottom_out[17] chany_bottom_out[18] chany_bottom_out[19]
+ chany_bottom_out[1] chany_bottom_out[2] chany_bottom_out[3] chany_bottom_out[4]
+ chany_bottom_out[5] chany_bottom_out[6] chany_bottom_out[7] chany_bottom_out[8]
+ chany_bottom_out[9] chany_top_in[0] chany_top_in[10] chany_top_in[11] chany_top_in[12]
+ chany_top_in[13] chany_top_in[14] chany_top_in[15] chany_top_in[16] chany_top_in[17]
+ chany_top_in[18] chany_top_in[19] chany_top_in[1] chany_top_in[2] chany_top_in[3]
+ chany_top_in[4] chany_top_in[5] chany_top_in[6] chany_top_in[7] chany_top_in[8]
+ chany_top_in[9] chany_top_out[0] chany_top_out[10] chany_top_out[11] chany_top_out[12]
+ chany_top_out[13] chany_top_out[14] chany_top_out[15] chany_top_out[16] chany_top_out[17]
+ chany_top_out[18] chany_top_out[19] chany_top_out[1] chany_top_out[2] chany_top_out[3]
+ chany_top_out[4] chany_top_out[5] chany_top_out[6] chany_top_out[7] chany_top_out[8]
+ chany_top_out[9] left_top_grid_pin_42_ left_top_grid_pin_43_ left_top_grid_pin_44_
+ left_top_grid_pin_45_ left_top_grid_pin_46_ left_top_grid_pin_47_ left_top_grid_pin_48_
+ left_top_grid_pin_49_ prog_clk right_top_grid_pin_42_ right_top_grid_pin_43_ right_top_grid_pin_44_
+ right_top_grid_pin_45_ right_top_grid_pin_46_ right_top_grid_pin_47_ right_top_grid_pin_48_
+ right_top_grid_pin_49_ top_left_grid_pin_34_ top_left_grid_pin_35_ top_left_grid_pin_36_
+ top_left_grid_pin_37_ top_left_grid_pin_38_ top_left_grid_pin_39_ top_left_grid_pin_40_
+ top_left_grid_pin_41_ vpwr vgnd
XFILLER_7_7 vgnd vpwr scs8hd_decap_3
Xmem_right_track_2.scs8hd_dfxbp_1_3_ prog_clk mux_right_track_2.mux_l3_in_0_/S mux_right_track_2.mux_l4_in_0_/S
+ mem_right_track_2.scs8hd_dfxbp_1_3_/QN vgnd vpwr scs8hd_dfxbp_1
XANTENNA_mux_right_track_0.mux_l2_in_3__A0 _029_/HI vgnd vpwr scs8hd_diode_2
XANTENNA_mux_top_track_4.mux_l2_in_7__S mux_top_track_4.mux_l2_in_0_/S vgnd vpwr scs8hd_diode_2
Xmux_bottom_track_25.scs8hd_buf_4_0_ mux_bottom_track_25.mux_l4_in_0_/X _103_/A vgnd
+ vpwr scs8hd_buf_1
XFILLER_13_111 vpwr vgnd scs8hd_fill_2
XFILLER_42_40 vpwr vgnd scs8hd_fill_2
XANTENNA_mux_top_track_16.mux_l1_in_2__S mux_top_track_16.mux_l1_in_2_/S vgnd vpwr
+ scs8hd_diode_2
XFILLER_3_34 vpwr vgnd scs8hd_fill_2
Xmux_bottom_track_3.mux_l1_in_1_ chanx_right_in[11] chanx_right_in[4] mux_bottom_track_3.mux_l1_in_4_/S
+ mux_bottom_track_3.mux_l1_in_1_/X vgnd vpwr scs8hd_mux2_1
XFILLER_36_247 vpwr vgnd scs8hd_fill_2
XANTENNA_mux_right_track_2.mux_l3_in_0__A0 mux_right_track_2.mux_l2_in_1_/X vgnd vpwr
+ scs8hd_diode_2
XANTENNA_mux_left_track_5.mux_l4_in_1__A1 mux_left_track_5.mux_l3_in_2_/X vgnd vpwr
+ scs8hd_diode_2
XANTENNA_mux_left_track_25.mux_l3_in_0__A1 mux_left_track_25.mux_l2_in_0_/X vgnd vpwr
+ scs8hd_diode_2
XFILLER_27_258 vpwr vgnd scs8hd_fill_2
XFILLER_27_236 vpwr vgnd scs8hd_fill_2
XFILLER_27_225 vgnd vpwr scs8hd_decap_4
XFILLER_6_118 vpwr vgnd scs8hd_fill_2
XFILLER_12_10 vpwr vgnd scs8hd_fill_2
XFILLER_12_32 vpwr vgnd scs8hd_fill_2
XFILLER_33_239 vgnd vpwr scs8hd_decap_3
XANTENNA__124__A chany_bottom_in[10] vgnd vpwr scs8hd_diode_2
XFILLER_5_140 vpwr vgnd scs8hd_fill_2
XFILLER_5_173 vgnd vpwr scs8hd_decap_4
XFILLER_24_228 vpwr vgnd scs8hd_fill_2
XFILLER_24_206 vpwr vgnd scs8hd_fill_2
XANTENNA_mux_right_track_4.mux_l1_in_0__A1 chany_top_in[1] vgnd vpwr scs8hd_diode_2
XFILLER_23_261 vgnd vpwr scs8hd_fill_1
XANTENNA_mux_top_track_0.mux_l1_in_0__A0 top_left_grid_pin_36_ vgnd vpwr scs8hd_diode_2
XFILLER_15_217 vgnd vpwr scs8hd_fill_1
XFILLER_15_239 vpwr vgnd scs8hd_fill_2
X_131_ _131_/A chany_top_out[4] vgnd vpwr scs8hd_buf_2
X_062_ chanx_right_in[12] chanx_left_out[13] vgnd vpwr scs8hd_buf_2
XANTENNA_mux_left_track_5.mux_l5_in_0__A1 mux_left_track_5.mux_l4_in_0_/X vgnd vpwr
+ scs8hd_diode_2
XANTENNA_mux_left_track_33.mux_l1_in_2__A1 chany_bottom_in[15] vgnd vpwr scs8hd_diode_2
XFILLER_2_154 vpwr vgnd scs8hd_fill_2
XFILLER_2_110 vpwr vgnd scs8hd_fill_2
XANTENNA_mux_bottom_track_3.mux_l1_in_3__S mux_bottom_track_3.mux_l1_in_4_/S vgnd
+ vpwr scs8hd_diode_2
XANTENNA_mux_bottom_track_1.mux_l3_in_0__S mux_bottom_track_1.mux_l3_in_1_/S vgnd
+ vpwr scs8hd_diode_2
XANTENNA__119__A _119_/A vgnd vpwr scs8hd_diode_2
XANTENNA_mem_left_track_5.scs8hd_dfxbp_1_1__CLK prog_clk vgnd vpwr scs8hd_diode_2
XANTENNA_mem_bottom_track_5.scs8hd_dfxbp_1_2__D mux_bottom_track_5.mux_l2_in_1_/S
+ vgnd vpwr scs8hd_diode_2
XANTENNA_mux_right_track_2.mux_l1_in_2__A1 right_top_grid_pin_45_ vgnd vpwr scs8hd_diode_2
Xmem_left_track_1.scs8hd_dfxbp_1_2_ prog_clk mux_left_track_1.mux_l2_in_0_/S mux_left_track_1.mux_l3_in_1_/S
+ mem_left_track_1.scs8hd_dfxbp_1_2_/QN vgnd vpwr scs8hd_dfxbp_1
XFILLER_34_41 vpwr vgnd scs8hd_fill_2
XFILLER_11_220 vpwr vgnd scs8hd_fill_2
XFILLER_11_264 vpwr vgnd scs8hd_fill_2
X_114_ _114_/A chany_bottom_out[1] vgnd vpwr scs8hd_buf_2
X_045_ _045_/HI _045_/LO vgnd vpwr scs8hd_conb_1
XANTENNA_mux_right_track_24.mux_l2_in_3__S mux_right_track_24.mux_l2_in_2_/S vgnd
+ vpwr scs8hd_diode_2
XFILLER_39_19 vpwr vgnd scs8hd_fill_2
Xmem_bottom_track_3.scs8hd_dfxbp_1_3_ prog_clk mux_bottom_track_3.mux_l3_in_1_/S mux_bottom_track_3.mux_l4_in_0_/S
+ mem_bottom_track_3.scs8hd_dfxbp_1_3_/QN vgnd vpwr scs8hd_dfxbp_1
XANTENNA_mux_bottom_track_25.mux_l3_in_0__S mux_bottom_track_25.mux_l3_in_1_/S vgnd
+ vpwr scs8hd_diode_2
Xmux_bottom_track_17.mux_l1_in_0_ chany_top_in[17] chany_top_in[8] mux_bottom_track_17.mux_l1_in_0_/S
+ mux_bottom_track_17.mux_l1_in_0_/X vgnd vpwr scs8hd_mux2_1
XANTENNA_mux_left_track_33.mux_l2_in_1__A1 mux_left_track_33.mux_l1_in_2_/X vgnd vpwr
+ scs8hd_diode_2
XANTENNA_mux_left_track_17.mux_l2_in_0__S mux_left_track_17.mux_l2_in_1_/S vgnd vpwr
+ scs8hd_diode_2
XFILLER_20_76 vpwr vgnd scs8hd_fill_2
XFILLER_20_32 vpwr vgnd scs8hd_fill_2
XFILLER_20_21 vpwr vgnd scs8hd_fill_2
XANTENNA_mem_right_track_16.scs8hd_dfxbp_1_2__D mux_right_track_16.mux_l2_in_0_/S
+ vgnd vpwr scs8hd_diode_2
XFILLER_28_194 vpwr vgnd scs8hd_fill_2
XANTENNA_mux_right_track_0.mux_l1_in_4__A1 chany_bottom_in[12] vgnd vpwr scs8hd_diode_2
XFILLER_6_23 vpwr vgnd scs8hd_fill_2
XANTENNA__132__A chany_bottom_in[2] vgnd vpwr scs8hd_diode_2
XANTENNA_mux_right_track_16.mux_l3_in_0__S mux_right_track_16.mux_l3_in_0_/S vgnd
+ vpwr scs8hd_diode_2
X_028_ _028_/HI _028_/LO vgnd vpwr scs8hd_conb_1
XANTENNA_mux_right_track_0.mux_l1_in_1__S mux_right_track_0.mux_l1_in_1_/S vgnd vpwr
+ scs8hd_diode_2
XANTENNA_mux_left_track_33.scs8hd_buf_4_0__A mux_left_track_33.mux_l3_in_0_/X vgnd
+ vpwr scs8hd_diode_2
XFILLER_13_3 vpwr vgnd scs8hd_fill_2
XANTENNA_mux_right_track_2.mux_l2_in_1__A1 mux_right_track_2.mux_l1_in_2_/X vgnd vpwr
+ scs8hd_diode_2
Xmux_bottom_track_33.scs8hd_buf_4_0_ mux_bottom_track_33.mux_l3_in_0_/X _099_/A vgnd
+ vpwr scs8hd_buf_1
XFILLER_25_175 vpwr vgnd scs8hd_fill_2
XFILLER_25_153 vgnd vpwr scs8hd_decap_3
XFILLER_31_53 vpwr vgnd scs8hd_fill_2
XFILLER_15_76 vpwr vgnd scs8hd_fill_2
XFILLER_15_98 vpwr vgnd scs8hd_fill_2
XANTENNA_mux_bottom_track_3.mux_l1_in_1__A0 chanx_right_in[11] vgnd vpwr scs8hd_diode_2
XANTENNA__127__A _127_/A vgnd vpwr scs8hd_diode_2
XFILLER_31_123 vgnd vpwr scs8hd_decap_3
XFILLER_31_101 vpwr vgnd scs8hd_fill_2
XPHY_170 vgnd vpwr scs8hd_tapvpwrvgnd_1
XFILLER_16_120 vpwr vgnd scs8hd_fill_2
XFILLER_16_142 vpwr vgnd scs8hd_fill_2
XFILLER_16_186 vpwr vgnd scs8hd_fill_2
XANTENNA_mux_top_track_0.mux_l2_in_1__S mux_top_track_0.mux_l2_in_2_/S vgnd vpwr scs8hd_diode_2
XANTENNA_mux_left_track_33.mux_l3_in_0__A1 mux_left_track_33.mux_l2_in_0_/X vgnd vpwr
+ scs8hd_diode_2
XPHY_192 vgnd vpwr scs8hd_tapvpwrvgnd_1
XPHY_181 vgnd vpwr scs8hd_tapvpwrvgnd_1
XFILLER_39_245 vgnd vpwr scs8hd_decap_8
XFILLER_22_145 vpwr vgnd scs8hd_fill_2
XFILLER_22_112 vgnd vpwr scs8hd_decap_4
XANTENNA_mux_left_track_9.mux_l2_in_2__A0 left_top_grid_pin_42_ vgnd vpwr scs8hd_diode_2
Xmem_right_track_2.scs8hd_dfxbp_1_2_ prog_clk mux_right_track_2.mux_l2_in_0_/S mux_right_track_2.mux_l3_in_0_/S
+ mem_right_track_2.scs8hd_dfxbp_1_2_/QN vgnd vpwr scs8hd_dfxbp_1
XANTENNA_mux_right_track_0.mux_l2_in_3__A1 chanx_left_in[12] vgnd vpwr scs8hd_diode_2
XFILLER_26_97 vgnd vpwr scs8hd_decap_3
XFILLER_26_86 vgnd vpwr scs8hd_decap_4
XFILLER_42_63 vgnd vpwr scs8hd_decap_4
XFILLER_9_149 vpwr vgnd scs8hd_fill_2
XFILLER_3_57 vpwr vgnd scs8hd_fill_2
Xmux_bottom_track_3.mux_l1_in_0_ chany_top_in[13] chany_top_in[4] mux_bottom_track_3.mux_l1_in_4_/S
+ mux_bottom_track_3.mux_l1_in_0_/X vgnd vpwr scs8hd_mux2_1
XFILLER_36_226 vpwr vgnd scs8hd_fill_2
XFILLER_36_215 vpwr vgnd scs8hd_fill_2
XANTENNA_mux_right_track_2.mux_l3_in_0__A1 mux_right_track_2.mux_l2_in_0_/X vgnd vpwr
+ scs8hd_diode_2
XANTENNA_mux_bottom_track_1.mux_l1_in_3__A0 bottom_left_grid_pin_38_ vgnd vpwr scs8hd_diode_2
XANTENNA_mem_top_track_8.scs8hd_dfxbp_1_2__D mux_top_track_8.mux_l2_in_1_/S vgnd vpwr
+ scs8hd_diode_2
XFILLER_8_160 vpwr vgnd scs8hd_fill_2
XFILLER_35_270 vgnd vpwr scs8hd_decap_6
XANTENNA_mux_bottom_track_3.mux_l2_in_0__A0 mux_bottom_track_3.mux_l1_in_1_/X vgnd
+ vpwr scs8hd_diode_2
XFILLER_10_115 vpwr vgnd scs8hd_fill_2
XFILLER_12_77 vpwr vgnd scs8hd_fill_2
XANTENNA_mem_top_track_4.scs8hd_dfxbp_1_0__CLK prog_clk vgnd vpwr scs8hd_diode_2
XFILLER_37_30 vpwr vgnd scs8hd_fill_2
XFILLER_33_218 vpwr vgnd scs8hd_fill_2
XFILLER_18_215 vgnd vpwr scs8hd_decap_4
XFILLER_18_204 vgnd vpwr scs8hd_decap_4
XANTENNA_mux_bottom_track_5.mux_l4_in_1__S mux_bottom_track_5.mux_l4_in_0_/S vgnd
+ vpwr scs8hd_diode_2
XFILLER_41_262 vgnd vpwr scs8hd_decap_12
XFILLER_41_251 vpwr vgnd scs8hd_fill_2
XFILLER_41_240 vpwr vgnd scs8hd_fill_2
XFILLER_26_270 vgnd vpwr scs8hd_decap_4
XFILLER_5_152 vpwr vgnd scs8hd_fill_2
XANTENNA_mux_left_track_9.mux_l3_in_1__A0 mux_left_track_9.mux_l2_in_3_/X vgnd vpwr
+ scs8hd_diode_2
XFILLER_17_270 vpwr vgnd scs8hd_fill_2
XFILLER_32_251 vpwr vgnd scs8hd_fill_2
X_130_ chany_bottom_in[4] chany_top_out[5] vgnd vpwr scs8hd_buf_2
XFILLER_23_240 vpwr vgnd scs8hd_fill_2
XFILLER_23_54 vgnd vpwr scs8hd_decap_4
XFILLER_23_10 vpwr vgnd scs8hd_fill_2
XANTENNA_mux_top_track_0.mux_l1_in_0__A1 top_left_grid_pin_34_ vgnd vpwr scs8hd_diode_2
X_061_ chanx_right_in[13] chanx_left_out[14] vgnd vpwr scs8hd_buf_2
XANTENNA_mux_left_track_17.mux_l2_in_3__S mux_left_track_17.mux_l2_in_1_/S vgnd vpwr
+ scs8hd_diode_2
XANTENNA_mux_bottom_track_1.mux_l2_in_2__A0 chanx_left_in[2] vgnd vpwr scs8hd_diode_2
XANTENNA_mux_left_track_5.mux_l2_in_6__A0 left_top_grid_pin_48_ vgnd vpwr scs8hd_diode_2
XFILLER_0_58 vpwr vgnd scs8hd_fill_2
XANTENNA__135__A _135_/A vgnd vpwr scs8hd_diode_2
XFILLER_9_56 vgnd vpwr scs8hd_decap_3
XFILLER_9_78 vpwr vgnd scs8hd_fill_2
XFILLER_14_251 vpwr vgnd scs8hd_fill_2
XFILLER_14_262 vpwr vgnd scs8hd_fill_2
XANTENNA_mem_right_track_24.scs8hd_dfxbp_1_3__CLK prog_clk vgnd vpwr scs8hd_diode_2
XANTENNA_mux_right_track_0.mux_l1_in_4__S mux_right_track_0.mux_l1_in_1_/S vgnd vpwr
+ scs8hd_diode_2
Xmem_left_track_9.scs8hd_dfxbp_1_3_ prog_clk mux_left_track_9.mux_l3_in_1_/S mux_left_track_9.mux_l4_in_0_/S
+ mem_left_track_9.scs8hd_dfxbp_1_3_/QN vgnd vpwr scs8hd_dfxbp_1
XANTENNA_mux_bottom_track_17.mux_l4_in_0__S mux_bottom_track_17.mux_l4_in_0_/S vgnd
+ vpwr scs8hd_diode_2
XANTENNA_mux_left_track_1.mux_l2_in_2__S mux_left_track_1.mux_l2_in_0_/S vgnd vpwr
+ scs8hd_diode_2
XFILLER_20_276 vgnd vpwr scs8hd_fill_1
Xmem_left_track_1.scs8hd_dfxbp_1_1_ prog_clk mux_left_track_1.mux_l1_in_0_/S mux_left_track_1.mux_l2_in_0_/S
+ mem_left_track_1.scs8hd_dfxbp_1_1_/QN vgnd vpwr scs8hd_dfxbp_1
XFILLER_18_98 vpwr vgnd scs8hd_fill_2
XFILLER_34_75 vpwr vgnd scs8hd_fill_2
XANTENNA_mux_left_track_9.mux_l4_in_0__A0 mux_left_track_9.mux_l3_in_1_/X vgnd vpwr
+ scs8hd_diode_2
X_113_ _113_/A chany_bottom_out[2] vgnd vpwr scs8hd_buf_2
XFILLER_7_214 vgnd vpwr scs8hd_fill_1
XFILLER_11_232 vpwr vgnd scs8hd_fill_2
XFILLER_11_276 vgnd vpwr scs8hd_fill_1
XANTENNA_mux_right_track_4.mux_l2_in_2__S mux_right_track_4.mux_l2_in_0_/S vgnd vpwr
+ scs8hd_diode_2
XFILLER_7_258 vpwr vgnd scs8hd_fill_2
XANTENNA_mux_top_track_24.mux_l1_in_0__S mux_top_track_24.mux_l1_in_1_/S vgnd vpwr
+ scs8hd_diode_2
X_044_ _044_/HI _044_/LO vgnd vpwr scs8hd_conb_1
XFILLER_38_107 vgnd vpwr scs8hd_decap_3
XFILLER_15_7 vpwr vgnd scs8hd_fill_2
XANTENNA_mux_left_track_5.mux_l3_in_0__S mux_left_track_5.mux_l3_in_3_/S vgnd vpwr
+ scs8hd_diode_2
Xmem_bottom_track_3.scs8hd_dfxbp_1_2_ prog_clk mux_bottom_track_3.mux_l2_in_3_/S mux_bottom_track_3.mux_l3_in_1_/S
+ mem_bottom_track_3.scs8hd_dfxbp_1_2_/QN vgnd vpwr scs8hd_dfxbp_1
XFILLER_29_118 vpwr vgnd scs8hd_fill_2
XFILLER_37_162 vpwr vgnd scs8hd_fill_2
XFILLER_37_140 vgnd vpwr scs8hd_fill_1
XANTENNA_mux_bottom_track_1.mux_l3_in_1__A0 mux_bottom_track_1.mux_l2_in_3_/X vgnd
+ vpwr scs8hd_diode_2
XANTENNA_mem_top_track_32.scs8hd_dfxbp_1_0__D mux_top_track_24.mux_l4_in_0_/S vgnd
+ vpwr scs8hd_diode_2
XANTENNA_mux_right_track_8.mux_l3_in_0__S mux_right_track_8.mux_l3_in_0_/S vgnd vpwr
+ scs8hd_diode_2
XFILLER_20_88 vpwr vgnd scs8hd_fill_2
XFILLER_4_228 vpwr vgnd scs8hd_fill_2
XFILLER_29_97 vpwr vgnd scs8hd_fill_2
XFILLER_29_53 vpwr vgnd scs8hd_fill_2
XFILLER_28_140 vpwr vgnd scs8hd_fill_2
XANTENNA_mux_top_track_4.mux_l3_in_2__S mux_top_track_4.mux_l3_in_0_/S vgnd vpwr scs8hd_diode_2
XFILLER_28_173 vpwr vgnd scs8hd_fill_2
XFILLER_19_184 vgnd vpwr scs8hd_decap_3
XFILLER_19_173 vgnd vpwr scs8hd_decap_4
XFILLER_34_176 vpwr vgnd scs8hd_fill_2
XANTENNA_mem_bottom_track_25.scs8hd_dfxbp_1_2__D mux_bottom_track_25.mux_l2_in_3_/S
+ vgnd vpwr scs8hd_diode_2
XANTENNA_mux_top_track_8.mux_l4_in_0__S mux_top_track_8.mux_l4_in_0_/S vgnd vpwr scs8hd_diode_2
XFILLER_40_124 vgnd vpwr scs8hd_fill_1
XANTENNA_mem_right_track_8.scs8hd_dfxbp_1_3__CLK prog_clk vgnd vpwr scs8hd_diode_2
XFILLER_25_187 vpwr vgnd scs8hd_fill_2
XFILLER_25_132 vpwr vgnd scs8hd_fill_2
XFILLER_15_11 vgnd vpwr scs8hd_decap_3
XFILLER_40_168 vpwr vgnd scs8hd_fill_2
XFILLER_40_146 vgnd vpwr scs8hd_decap_4
XFILLER_31_98 vgnd vpwr scs8hd_fill_1
XANTENNA_mem_bottom_track_9.scs8hd_dfxbp_1_0__D mux_bottom_track_5.mux_l5_in_0_/S
+ vgnd vpwr scs8hd_diode_2
XFILLER_0_231 vpwr vgnd scs8hd_fill_2
Xmux_right_track_8.mux_l2_in_3_ _035_/HI chanx_left_in[16] mux_right_track_8.mux_l2_in_1_/S
+ mux_right_track_8.mux_l2_in_3_/X vgnd vpwr scs8hd_mux2_1
XANTENNA_mux_bottom_track_3.mux_l1_in_1__A1 chanx_right_in[4] vgnd vpwr scs8hd_diode_2
XFILLER_31_179 vpwr vgnd scs8hd_fill_2
XPHY_193 vgnd vpwr scs8hd_tapvpwrvgnd_1
XPHY_182 vgnd vpwr scs8hd_tapvpwrvgnd_1
XPHY_171 vgnd vpwr scs8hd_tapvpwrvgnd_1
XPHY_160 vgnd vpwr scs8hd_tapvpwrvgnd_1
XANTENNA_mux_bottom_track_1.mux_l4_in_0__A0 mux_bottom_track_1.mux_l3_in_1_/X vgnd
+ vpwr scs8hd_diode_2
XFILLER_39_224 vpwr vgnd scs8hd_fill_2
Xmux_top_track_0.mux_l2_in_3_ _036_/HI chanx_left_in[12] mux_top_track_0.mux_l2_in_2_/S
+ mux_top_track_0.mux_l2_in_3_/X vgnd vpwr scs8hd_mux2_1
XANTENNA_mem_top_track_16.scs8hd_dfxbp_1_0__CLK prog_clk vgnd vpwr scs8hd_diode_2
XFILLER_22_157 vgnd vpwr scs8hd_decap_4
XANTENNA_mux_left_track_9.mux_l2_in_2__A1 chany_bottom_in[16] vgnd vpwr scs8hd_diode_2
Xmem_right_track_2.scs8hd_dfxbp_1_1_ prog_clk mux_right_track_2.mux_l1_in_4_/S mux_right_track_2.mux_l2_in_0_/S
+ mem_right_track_2.scs8hd_dfxbp_1_1_/QN vgnd vpwr scs8hd_dfxbp_1
XFILLER_13_157 vpwr vgnd scs8hd_fill_2
XFILLER_13_179 vpwr vgnd scs8hd_fill_2
XANTENNA_mux_left_track_33.mux_l1_in_1__S mux_left_track_33.mux_l1_in_3_/S vgnd vpwr
+ scs8hd_diode_2
XANTENNA_mux_right_track_32.mux_l2_in_1__S mux_right_track_32.mux_l2_in_0_/S vgnd
+ vpwr scs8hd_diode_2
XANTENNA_mux_bottom_track_1.mux_l1_in_3__A1 bottom_left_grid_pin_36_ vgnd vpwr scs8hd_diode_2
XFILLER_8_150 vgnd vpwr scs8hd_fill_1
XFILLER_12_190 vpwr vgnd scs8hd_fill_2
XFILLER_42_208 vpwr vgnd scs8hd_fill_2
XANTENNA_mux_bottom_track_3.mux_l2_in_0__A1 mux_bottom_track_3.mux_l1_in_0_/X vgnd
+ vpwr scs8hd_diode_2
XFILLER_10_138 vpwr vgnd scs8hd_fill_2
XFILLER_12_23 vpwr vgnd scs8hd_fill_2
XFILLER_12_45 vpwr vgnd scs8hd_fill_2
XFILLER_37_75 vgnd vpwr scs8hd_fill_1
XFILLER_37_53 vpwr vgnd scs8hd_fill_2
XFILLER_18_238 vpwr vgnd scs8hd_fill_2
XFILLER_41_274 vgnd vpwr scs8hd_decap_3
Xmux_top_track_0.mux_l1_in_4_ chanx_left_in[0] chany_bottom_in[12] mux_top_track_0.mux_l1_in_1_/S
+ mux_top_track_0.mux_l1_in_4_/X vgnd vpwr scs8hd_mux2_1
XANTENNA_mux_right_track_4.mux_l2_in_5__S mux_right_track_4.mux_l2_in_0_/S vgnd vpwr
+ scs8hd_diode_2
XFILLER_5_197 vgnd vpwr scs8hd_fill_1
XFILLER_38_6 vpwr vgnd scs8hd_fill_2
XANTENNA_mux_left_track_5.mux_l3_in_3__S mux_left_track_5.mux_l3_in_3_/S vgnd vpwr
+ scs8hd_diode_2
XANTENNA_mem_left_track_17.scs8hd_dfxbp_1_1__CLK prog_clk vgnd vpwr scs8hd_diode_2
XFILLER_32_263 vgnd vpwr scs8hd_decap_12
XANTENNA_mux_left_track_9.mux_l3_in_1__A1 mux_left_track_9.mux_l2_in_2_/X vgnd vpwr
+ scs8hd_diode_2
Xmux_right_track_8.mux_l4_in_0_ mux_right_track_8.mux_l3_in_1_/X mux_right_track_8.mux_l3_in_0_/X
+ mux_right_track_8.mux_l4_in_0_/S mux_right_track_8.mux_l4_in_0_/X vgnd vpwr scs8hd_mux2_1
XFILLER_23_274 vgnd vpwr scs8hd_decap_3
XFILLER_23_77 vpwr vgnd scs8hd_fill_2
X_060_ chanx_right_in[14] chanx_left_out[15] vgnd vpwr scs8hd_buf_2
Xmux_top_track_0.mux_l4_in_0_ mux_top_track_0.mux_l3_in_1_/X mux_top_track_0.mux_l3_in_0_/X
+ mux_top_track_0.mux_l4_in_0_/S mux_top_track_0.mux_l4_in_0_/X vgnd vpwr scs8hd_mux2_1
XFILLER_3_3 vgnd vpwr scs8hd_decap_3
XFILLER_2_145 vpwr vgnd scs8hd_fill_2
XFILLER_2_134 vpwr vgnd scs8hd_fill_2
XANTENNA_mux_bottom_track_1.mux_l2_in_2__A1 mux_bottom_track_1.mux_l1_in_4_/X vgnd
+ vpwr scs8hd_diode_2
XANTENNA_mux_top_track_16.mux_l2_in_0__S mux_top_track_16.mux_l2_in_0_/S vgnd vpwr
+ scs8hd_diode_2
XANTENNA_mux_left_track_5.mux_l2_in_6__A1 left_top_grid_pin_47_ vgnd vpwr scs8hd_diode_2
XFILLER_9_35 vpwr vgnd scs8hd_fill_2
XFILLER_14_274 vgnd vpwr scs8hd_fill_1
XFILLER_36_3 vgnd vpwr scs8hd_decap_3
XANTENNA_mux_right_track_4.mux_l2_in_2__A0 right_top_grid_pin_45_ vgnd vpwr scs8hd_diode_2
Xmem_left_track_9.scs8hd_dfxbp_1_2_ prog_clk mux_left_track_9.mux_l2_in_1_/S mux_left_track_9.mux_l3_in_1_/S
+ mem_left_track_9.scs8hd_dfxbp_1_2_/QN vgnd vpwr scs8hd_dfxbp_1
XFILLER_20_255 vpwr vgnd scs8hd_fill_2
XANTENNA__061__A chanx_right_in[13] vgnd vpwr scs8hd_diode_2
XFILLER_18_88 vpwr vgnd scs8hd_fill_2
XFILLER_18_77 vpwr vgnd scs8hd_fill_2
Xmem_left_track_1.scs8hd_dfxbp_1_0_ prog_clk mux_bottom_track_33.mux_l3_in_0_/S mux_left_track_1.mux_l1_in_0_/S
+ mem_left_track_1.scs8hd_dfxbp_1_0_/QN vgnd vpwr scs8hd_dfxbp_1
XFILLER_34_87 vpwr vgnd scs8hd_fill_2
XANTENNA_mux_left_track_9.mux_l4_in_0__A1 mux_left_track_9.mux_l3_in_0_/X vgnd vpwr
+ scs8hd_diode_2
X_043_ _043_/HI _043_/LO vgnd vpwr scs8hd_conb_1
X_112_ chany_top_in[2] chany_bottom_out[3] vgnd vpwr scs8hd_buf_2
XANTENNA_mem_bottom_track_9.scs8hd_dfxbp_1_3__D mux_bottom_track_9.mux_l3_in_1_/S
+ vgnd vpwr scs8hd_diode_2
XFILLER_38_119 vpwr vgnd scs8hd_fill_2
Xmux_right_track_8.mux_l3_in_1_ mux_right_track_8.mux_l2_in_3_/X mux_right_track_8.mux_l2_in_2_/X
+ mux_right_track_8.mux_l3_in_0_/S mux_right_track_8.mux_l3_in_1_/X vgnd vpwr scs8hd_mux2_1
Xmem_bottom_track_3.scs8hd_dfxbp_1_1_ prog_clk mux_bottom_track_3.mux_l1_in_4_/S mux_bottom_track_3.mux_l2_in_3_/S
+ mem_bottom_track_3.scs8hd_dfxbp_1_1_/QN vgnd vpwr scs8hd_dfxbp_1
XFILLER_6_270 vpwr vgnd scs8hd_fill_2
Xmux_top_track_0.mux_l3_in_1_ mux_top_track_0.mux_l2_in_3_/X mux_top_track_0.mux_l2_in_2_/X
+ mux_top_track_0.mux_l3_in_1_/S mux_top_track_0.mux_l3_in_1_/X vgnd vpwr scs8hd_mux2_1
XANTENNA_mux_bottom_track_1.mux_l3_in_1__A1 mux_bottom_track_1.mux_l2_in_2_/X vgnd
+ vpwr scs8hd_diode_2
XANTENNA__056__A chanx_right_in[18] vgnd vpwr scs8hd_diode_2
XFILLER_4_207 vgnd vpwr scs8hd_decap_4
XANTENNA_mux_right_track_4.mux_l3_in_1__A0 mux_right_track_4.mux_l2_in_3_/X vgnd vpwr
+ scs8hd_diode_2
XANTENNA_mux_bottom_track_3.mux_l2_in_1__S mux_bottom_track_3.mux_l2_in_3_/S vgnd
+ vpwr scs8hd_diode_2
XFILLER_6_36 vpwr vgnd scs8hd_fill_2
XANTENNA_mem_right_track_0.scs8hd_dfxbp_1_2__D mux_right_track_0.mux_l2_in_0_/S vgnd
+ vpwr scs8hd_diode_2
XANTENNA_mux_bottom_track_9.mux_l1_in_2__S mux_bottom_track_9.mux_l1_in_2_/S vgnd
+ vpwr scs8hd_diode_2
XFILLER_31_66 vpwr vgnd scs8hd_fill_2
XANTENNA_mux_left_track_25.mux_l2_in_1__S mux_left_track_25.mux_l2_in_3_/S vgnd vpwr
+ scs8hd_diode_2
XFILLER_0_243 vpwr vgnd scs8hd_fill_2
Xmux_right_track_8.mux_l2_in_2_ chanx_left_in[6] chany_bottom_in[16] mux_right_track_8.mux_l2_in_1_/S
+ mux_right_track_8.mux_l2_in_2_/X vgnd vpwr scs8hd_mux2_1
XFILLER_16_166 vgnd vpwr scs8hd_fill_1
XFILLER_31_169 vgnd vpwr scs8hd_fill_1
XFILLER_31_114 vpwr vgnd scs8hd_fill_2
XPHY_194 vgnd vpwr scs8hd_tapvpwrvgnd_1
XPHY_183 vgnd vpwr scs8hd_tapvpwrvgnd_1
XPHY_172 vgnd vpwr scs8hd_tapvpwrvgnd_1
XANTENNA_mux_bottom_track_1.mux_l4_in_0__A1 mux_bottom_track_1.mux_l3_in_0_/X vgnd
+ vpwr scs8hd_diode_2
XPHY_150 vgnd vpwr scs8hd_tapvpwrvgnd_1
XPHY_161 vgnd vpwr scs8hd_tapvpwrvgnd_1
XANTENNA_mux_right_track_24.mux_l3_in_1__S mux_right_track_24.mux_l3_in_0_/S vgnd
+ vpwr scs8hd_diode_2
Xmux_top_track_0.mux_l2_in_2_ chanx_left_in[2] mux_top_track_0.mux_l1_in_4_/X mux_top_track_0.mux_l2_in_2_/S
+ mux_top_track_0.mux_l2_in_2_/X vgnd vpwr scs8hd_mux2_1
XANTENNA_mem_bottom_track_17.scs8hd_dfxbp_1_2__CLK prog_clk vgnd vpwr scs8hd_diode_2
XFILLER_39_236 vgnd vpwr scs8hd_decap_8
XFILLER_39_203 vpwr vgnd scs8hd_fill_2
XANTENNA_mux_top_track_2.mux_l1_in_1__A0 top_left_grid_pin_41_ vgnd vpwr scs8hd_diode_2
XANTENNA_mux_right_track_4.mux_l4_in_0__A0 mux_right_track_4.mux_l3_in_1_/X vgnd vpwr
+ scs8hd_diode_2
Xmem_right_track_2.scs8hd_dfxbp_1_0_ prog_clk mux_right_track_0.mux_l4_in_0_/S mux_right_track_2.mux_l1_in_4_/S
+ mem_right_track_2.scs8hd_dfxbp_1_0_/QN vgnd vpwr scs8hd_dfxbp_1
XFILLER_26_55 vpwr vgnd scs8hd_fill_2
XFILLER_9_118 vpwr vgnd scs8hd_fill_2
XFILLER_42_98 vgnd vpwr scs8hd_decap_3
XFILLER_21_191 vpwr vgnd scs8hd_fill_2
XANTENNA_mux_top_track_16.mux_l2_in_3__S mux_top_track_16.mux_l2_in_0_/S vgnd vpwr
+ scs8hd_diode_2
XFILLER_36_206 vpwr vgnd scs8hd_fill_2
Xmux_bottom_track_5.scs8hd_buf_4_0_ mux_bottom_track_5.mux_l5_in_0_/X _113_/A vgnd
+ vpwr scs8hd_buf_1
XANTENNA_mux_left_track_3.mux_l1_in_0__S mux_left_track_3.mux_l1_in_0_/S vgnd vpwr
+ scs8hd_diode_2
XANTENNA_mem_left_track_5.scs8hd_dfxbp_1_4__CLK prog_clk vgnd vpwr scs8hd_diode_2
XANTENNA__064__A chanx_right_in[10] vgnd vpwr scs8hd_diode_2
XFILLER_12_57 vgnd vpwr scs8hd_fill_1
XFILLER_41_220 vgnd vpwr scs8hd_decap_3
XANTENNA_mux_top_track_0.mux_l1_in_3__A0 chany_bottom_in[2] vgnd vpwr scs8hd_diode_2
Xmux_top_track_0.mux_l1_in_3_ chany_bottom_in[2] chanx_right_in[12] mux_top_track_0.mux_l1_in_1_/S
+ mux_top_track_0.mux_l1_in_3_/X vgnd vpwr scs8hd_mux2_1
XANTENNA_mem_left_track_3.scs8hd_dfxbp_1_2__CLK prog_clk vgnd vpwr scs8hd_diode_2
XANTENNA_mux_top_track_2.mux_l1_in_2__S mux_top_track_2.mux_l1_in_3_/S vgnd vpwr scs8hd_diode_2
XFILLER_5_132 vpwr vgnd scs8hd_fill_2
XFILLER_5_165 vpwr vgnd scs8hd_fill_2
XANTENNA_mux_top_track_2.mux_l2_in_0__A0 mux_top_track_2.mux_l1_in_1_/X vgnd vpwr
+ scs8hd_diode_2
XFILLER_17_261 vgnd vpwr scs8hd_fill_1
XANTENNA_mem_left_track_1.scs8hd_dfxbp_1_0__CLK prog_clk vgnd vpwr scs8hd_diode_2
XFILLER_4_91 vgnd vpwr scs8hd_fill_1
XANTENNA__059__A _059_/A vgnd vpwr scs8hd_diode_2
XFILLER_23_23 vpwr vgnd scs8hd_fill_2
XFILLER_2_102 vpwr vgnd scs8hd_fill_2
XFILLER_9_14 vpwr vgnd scs8hd_fill_2
XFILLER_29_3 vgnd vpwr scs8hd_decap_4
XANTENNA_mux_right_track_4.mux_l2_in_2__A1 right_top_grid_pin_44_ vgnd vpwr scs8hd_diode_2
Xmem_left_track_9.scs8hd_dfxbp_1_1_ prog_clk mux_left_track_9.mux_l1_in_0_/S mux_left_track_9.mux_l2_in_1_/S
+ mem_left_track_9.scs8hd_dfxbp_1_1_/QN vgnd vpwr scs8hd_dfxbp_1
XANTENNA_mem_right_track_2.scs8hd_dfxbp_1_1__D mux_right_track_2.mux_l1_in_4_/S vgnd
+ vpwr scs8hd_diode_2
XFILLER_20_267 vpwr vgnd scs8hd_fill_2
XFILLER_20_234 vpwr vgnd scs8hd_fill_2
XANTENNA_mux_top_track_0.mux_l2_in_2__A0 chanx_left_in[2] vgnd vpwr scs8hd_diode_2
XFILLER_18_56 vpwr vgnd scs8hd_fill_2
XFILLER_18_23 vpwr vgnd scs8hd_fill_2
XFILLER_18_12 vpwr vgnd scs8hd_fill_2
XFILLER_34_22 vgnd vpwr scs8hd_decap_3
XANTENNA_mem_right_track_16.scs8hd_dfxbp_1_0__CLK prog_clk vgnd vpwr scs8hd_diode_2
X_042_ _042_/HI _042_/LO vgnd vpwr scs8hd_conb_1
X_111_ _111_/A chany_bottom_out[4] vgnd vpwr scs8hd_buf_2
XFILLER_7_227 vgnd vpwr scs8hd_decap_4
XFILLER_7_238 vgnd vpwr scs8hd_decap_4
XFILLER_11_256 vpwr vgnd scs8hd_fill_2
XANTENNA_mem_top_track_16.scs8hd_dfxbp_1_1__D mux_top_track_16.mux_l1_in_2_/S vgnd
+ vpwr scs8hd_diode_2
Xmux_right_track_8.mux_l3_in_0_ mux_right_track_8.mux_l2_in_1_/X mux_right_track_8.mux_l2_in_0_/X
+ mux_right_track_8.mux_l3_in_0_/S mux_right_track_8.mux_l3_in_0_/X vgnd vpwr scs8hd_mux2_1
Xmem_bottom_track_3.scs8hd_dfxbp_1_0_ prog_clk mux_bottom_track_1.mux_l4_in_0_/S mux_bottom_track_3.mux_l1_in_4_/S
+ mem_bottom_track_3.scs8hd_dfxbp_1_0_/QN vgnd vpwr scs8hd_dfxbp_1
XFILLER_37_197 vpwr vgnd scs8hd_fill_2
XFILLER_37_175 vpwr vgnd scs8hd_fill_2
Xmux_top_track_0.mux_l3_in_0_ mux_top_track_0.mux_l2_in_1_/X mux_top_track_0.mux_l2_in_0_/X
+ mux_top_track_0.mux_l3_in_1_/S mux_top_track_0.mux_l3_in_0_/X vgnd vpwr scs8hd_mux2_1
XANTENNA__072__A chanx_right_in[2] vgnd vpwr scs8hd_diode_2
XANTENNA_mux_left_track_17.mux_l3_in_1__S mux_left_track_17.mux_l3_in_1_/S vgnd vpwr
+ scs8hd_diode_2
XANTENNA_mux_right_track_4.mux_l3_in_1__A1 mux_right_track_4.mux_l2_in_2_/X vgnd vpwr
+ scs8hd_diode_2
XANTENNA_mux_top_track_32.mux_l1_in_1__S mux_top_track_32.mux_l1_in_0_/S vgnd vpwr
+ scs8hd_diode_2
XFILLER_6_59 vpwr vgnd scs8hd_fill_2
XANTENNA_mux_top_track_0.mux_l3_in_1__A0 mux_top_track_0.mux_l2_in_3_/X vgnd vpwr
+ scs8hd_diode_2
XFILLER_20_7 vgnd vpwr scs8hd_fill_1
XFILLER_3_274 vgnd vpwr scs8hd_decap_3
XANTENNA_mux_bottom_track_3.mux_l1_in_4__A0 chanx_left_in[3] vgnd vpwr scs8hd_diode_2
XFILLER_10_90 vpwr vgnd scs8hd_fill_2
XFILLER_34_189 vpwr vgnd scs8hd_fill_2
XFILLER_34_145 vpwr vgnd scs8hd_fill_2
XFILLER_34_134 vgnd vpwr scs8hd_fill_1
XFILLER_19_142 vpwr vgnd scs8hd_fill_2
XANTENNA_mux_right_track_0.mux_l2_in_2__S mux_right_track_0.mux_l2_in_0_/S vgnd vpwr
+ scs8hd_diode_2
XANTENNA_mux_left_track_3.mux_l1_in_3__S mux_left_track_3.mux_l1_in_0_/S vgnd vpwr
+ scs8hd_diode_2
XANTENNA_mux_left_track_1.mux_l3_in_0__S mux_left_track_1.mux_l3_in_1_/S vgnd vpwr
+ scs8hd_diode_2
XANTENNA_mux_bottom_track_5.mux_l2_in_1__A0 chanx_right_in[14] vgnd vpwr scs8hd_diode_2
XFILLER_40_137 vpwr vgnd scs8hd_fill_2