* NGSPICE file created from sb_2__0_.ext - technology: EFS8A

* Black-box entry subcircuit for scs8hd_dfxbp_1 abstract view
.subckt scs8hd_dfxbp_1 CLK D Q QN vgnd vpwr
.ends

* Black-box entry subcircuit for scs8hd_fill_2 abstract view
.subckt scs8hd_fill_2 vpwr vgnd
.ends

* Black-box entry subcircuit for scs8hd_fill_1 abstract view
.subckt scs8hd_fill_1 vgnd vpwr
.ends

* Black-box entry subcircuit for scs8hd_decap_12 abstract view
.subckt scs8hd_decap_12 vgnd vpwr
.ends

* Black-box entry subcircuit for scs8hd_decap_8 abstract view
.subckt scs8hd_decap_8 vgnd vpwr
.ends

* Black-box entry subcircuit for scs8hd_decap_3 abstract view
.subckt scs8hd_decap_3 vgnd vpwr
.ends

* Black-box entry subcircuit for scs8hd_diode_2 abstract view
.subckt scs8hd_diode_2 DIODE vgnd vpwr
.ends

* Black-box entry subcircuit for scs8hd_decap_4 abstract view
.subckt scs8hd_decap_4 vgnd vpwr
.ends

* Black-box entry subcircuit for scs8hd_conb_1 abstract view
.subckt scs8hd_conb_1 HI LO vgnd vpwr
.ends

* Black-box entry subcircuit for scs8hd_buf_1 abstract view
.subckt scs8hd_buf_1 A X vgnd vpwr
.ends

* Black-box entry subcircuit for scs8hd_decap_6 abstract view
.subckt scs8hd_decap_6 vgnd vpwr
.ends

* Black-box entry subcircuit for scs8hd_tapvpwrvgnd_1 abstract view
.subckt scs8hd_tapvpwrvgnd_1 vgnd vpwr
.ends

* Black-box entry subcircuit for scs8hd_mux2_1 abstract view
.subckt scs8hd_mux2_1 A0 A1 S X vgnd vpwr
.ends

* Black-box entry subcircuit for scs8hd_buf_2 abstract view
.subckt scs8hd_buf_2 A X vgnd vpwr
.ends

.subckt sb_2__0_ ccff_head ccff_tail chanx_left_in[0] chanx_left_in[10] chanx_left_in[11]
+ chanx_left_in[12] chanx_left_in[13] chanx_left_in[14] chanx_left_in[15] chanx_left_in[16]
+ chanx_left_in[17] chanx_left_in[18] chanx_left_in[19] chanx_left_in[1] chanx_left_in[2]
+ chanx_left_in[3] chanx_left_in[4] chanx_left_in[5] chanx_left_in[6] chanx_left_in[7]
+ chanx_left_in[8] chanx_left_in[9] chanx_left_out[0] chanx_left_out[10] chanx_left_out[11]
+ chanx_left_out[12] chanx_left_out[13] chanx_left_out[14] chanx_left_out[15] chanx_left_out[16]
+ chanx_left_out[17] chanx_left_out[18] chanx_left_out[19] chanx_left_out[1] chanx_left_out[2]
+ chanx_left_out[3] chanx_left_out[4] chanx_left_out[5] chanx_left_out[6] chanx_left_out[7]
+ chanx_left_out[8] chanx_left_out[9] chany_top_in[0] chany_top_in[10] chany_top_in[11]
+ chany_top_in[12] chany_top_in[13] chany_top_in[14] chany_top_in[15] chany_top_in[16]
+ chany_top_in[17] chany_top_in[18] chany_top_in[19] chany_top_in[1] chany_top_in[2]
+ chany_top_in[3] chany_top_in[4] chany_top_in[5] chany_top_in[6] chany_top_in[7]
+ chany_top_in[8] chany_top_in[9] chany_top_out[0] chany_top_out[10] chany_top_out[11]
+ chany_top_out[12] chany_top_out[13] chany_top_out[14] chany_top_out[15] chany_top_out[16]
+ chany_top_out[17] chany_top_out[18] chany_top_out[19] chany_top_out[1] chany_top_out[2]
+ chany_top_out[3] chany_top_out[4] chany_top_out[5] chany_top_out[6] chany_top_out[7]
+ chany_top_out[8] chany_top_out[9] left_bottom_grid_pin_1_ left_top_grid_pin_42_
+ left_top_grid_pin_43_ left_top_grid_pin_44_ left_top_grid_pin_45_ left_top_grid_pin_46_
+ left_top_grid_pin_47_ left_top_grid_pin_48_ left_top_grid_pin_49_ prog_clk top_left_grid_pin_34_
+ top_left_grid_pin_35_ top_left_grid_pin_36_ top_left_grid_pin_37_ top_left_grid_pin_38_
+ top_left_grid_pin_39_ top_left_grid_pin_40_ top_left_grid_pin_41_ top_right_grid_pin_1_
+ vpwr vgnd
Xmem_left_track_19.scs8hd_dfxbp_1_1_ prog_clk mux_left_track_19.mux_l1_in_0_/S mux_left_track_19.mux_l2_in_0_/S
+ mem_left_track_19.scs8hd_dfxbp_1_1_/QN vgnd vpwr scs8hd_dfxbp_1
XFILLER_26_41 vpwr vgnd scs8hd_fill_2
XFILLER_26_74 vgnd vpwr scs8hd_fill_1
XFILLER_9_159 vgnd vpwr scs8hd_decap_12
XFILLER_27_203 vgnd vpwr scs8hd_decap_12
XFILLER_27_269 vgnd vpwr scs8hd_decap_8
XFILLER_12_10 vpwr vgnd scs8hd_fill_2
XFILLER_37_62 vgnd vpwr scs8hd_decap_3
XFILLER_37_40 vpwr vgnd scs8hd_fill_2
XANTENNA_mux_top_track_36.mux_l2_in_0__A0 _050_/HI vgnd vpwr scs8hd_diode_2
XFILLER_37_95 vgnd vpwr scs8hd_decap_4
XFILLER_5_184 vgnd vpwr scs8hd_decap_12
XANTENNA_mem_left_track_21.scs8hd_dfxbp_1_0__CLK prog_clk vgnd vpwr scs8hd_diode_2
XFILLER_30_209 vgnd vpwr scs8hd_decap_4
XANTENNA_mux_top_track_0.mux_l1_in_0__A0 top_left_grid_pin_36_ vgnd vpwr scs8hd_diode_2
X_062_ _062_/HI _062_/LO vgnd vpwr scs8hd_conb_1
XFILLER_23_42 vpwr vgnd scs8hd_fill_2
XFILLER_2_154 vgnd vpwr scs8hd_decap_12
XANTENNA_mux_top_track_28.mux_l2_in_0__A1 mux_top_track_28.mux_l1_in_0_/X vgnd vpwr
+ scs8hd_diode_2
Xmux_left_track_13.scs8hd_buf_4_0_ mux_left_track_13.mux_l2_in_0_/X _081_/A vgnd vpwr
+ scs8hd_buf_1
XFILLER_20_242 vgnd vpwr scs8hd_decap_12
XANTENNA_mem_left_track_5.scs8hd_dfxbp_1_1__CLK prog_clk vgnd vpwr scs8hd_diode_2
Xmem_left_track_1.scs8hd_dfxbp_1_2_ prog_clk mux_left_track_1.mux_l2_in_0_/S mux_left_track_1.mux_l3_in_0_/S
+ mem_left_track_1.scs8hd_dfxbp_1_2_/QN vgnd vpwr scs8hd_dfxbp_1
XFILLER_18_20 vpwr vgnd scs8hd_fill_2
XFILLER_11_220 vgnd vpwr scs8hd_decap_12
XFILLER_7_257 vgnd vpwr scs8hd_decap_12
X_045_ _045_/HI _045_/LO vgnd vpwr scs8hd_conb_1
XFILLER_38_106 vpwr vgnd scs8hd_fill_2
Xmem_top_track_14.scs8hd_dfxbp_1_0_ prog_clk mux_top_track_12.mux_l2_in_0_/S mux_top_track_14.mux_l1_in_0_/S
+ mem_top_track_14.scs8hd_dfxbp_1_0_/QN vgnd vpwr scs8hd_dfxbp_1
XFILLER_37_172 vpwr vgnd scs8hd_fill_2
XANTENNA_mux_left_track_17.mux_l2_in_0__S mux_left_track_17.mux_l2_in_0_/S vgnd vpwr
+ scs8hd_diode_2
XFILLER_4_227 vgnd vpwr scs8hd_decap_12
XFILLER_20_65 vpwr vgnd scs8hd_fill_2
XFILLER_29_96 vpwr vgnd scs8hd_fill_2
XFILLER_29_85 vpwr vgnd scs8hd_fill_2
XFILLER_29_52 vpwr vgnd scs8hd_fill_2
XANTENNA_mem_top_track_36.scs8hd_dfxbp_1_0__CLK prog_clk vgnd vpwr scs8hd_diode_2
XFILLER_6_56 vgnd vpwr scs8hd_decap_12
XFILLER_34_142 vpwr vgnd scs8hd_fill_2
XFILLER_1_208 vgnd vpwr scs8hd_decap_12
XFILLER_40_178 vgnd vpwr scs8hd_decap_12
XFILLER_31_53 vpwr vgnd scs8hd_fill_2
XFILLER_31_31 vgnd vpwr scs8hd_decap_3
XFILLER_31_75 vgnd vpwr scs8hd_decap_6
XFILLER_0_230 vgnd vpwr scs8hd_decap_12
XANTENNA_mem_top_track_10.scs8hd_dfxbp_1_1__D mux_top_track_10.mux_l1_in_0_/S vgnd
+ vpwr scs8hd_diode_2
XFILLER_16_142 vpwr vgnd scs8hd_fill_2
XPHY_170 vgnd vpwr scs8hd_tapvpwrvgnd_1
XANTENNA_mux_top_track_0.mux_l2_in_1__S mux_top_track_0.mux_l2_in_0_/S vgnd vpwr scs8hd_diode_2
XANTENNA_mux_left_track_7.mux_l1_in_0__S mux_left_track_7.mux_l1_in_0_/S vgnd vpwr
+ scs8hd_diode_2
XPHY_181 vgnd vpwr scs8hd_tapvpwrvgnd_1
XPHY_192 vgnd vpwr scs8hd_tapvpwrvgnd_1
XFILLER_39_234 vgnd vpwr scs8hd_decap_6
XANTENNA_mem_top_track_30.scs8hd_dfxbp_1_1__D mux_top_track_30.mux_l1_in_0_/S vgnd
+ vpwr scs8hd_diode_2
XFILLER_22_123 vgnd vpwr scs8hd_decap_8
XFILLER_22_145 vgnd vpwr scs8hd_decap_8
Xmem_left_track_19.scs8hd_dfxbp_1_0_ prog_clk mux_left_track_17.mux_l2_in_0_/S mux_left_track_19.mux_l1_in_0_/S
+ mem_left_track_19.scs8hd_dfxbp_1_0_/QN vgnd vpwr scs8hd_dfxbp_1
XFILLER_26_97 vpwr vgnd scs8hd_fill_2
XFILLER_36_215 vgnd vpwr scs8hd_decap_12
XANTENNA_mem_top_track_6.scs8hd_dfxbp_1_2__CLK prog_clk vgnd vpwr scs8hd_diode_2
XFILLER_27_215 vgnd vpwr scs8hd_decap_12
XFILLER_42_218 vgnd vpwr scs8hd_decap_12
XFILLER_12_22 vpwr vgnd scs8hd_fill_2
XFILLER_12_66 vgnd vpwr scs8hd_decap_4
XANTENNA_mem_top_track_4.scs8hd_dfxbp_1_0__CLK prog_clk vgnd vpwr scs8hd_diode_2
XFILLER_37_30 vgnd vpwr scs8hd_decap_4
XFILLER_18_215 vgnd vpwr scs8hd_decap_8
XANTENNA_mux_top_track_36.mux_l2_in_0__A1 mux_top_track_36.mux_l1_in_0_/X vgnd vpwr
+ scs8hd_diode_2
Xmux_left_track_21.scs8hd_buf_4_0_ mux_left_track_21.mux_l2_in_0_/X _077_/A vgnd vpwr
+ scs8hd_buf_1
XFILLER_5_196 vgnd vpwr scs8hd_decap_12
XFILLER_32_251 vgnd vpwr scs8hd_decap_12
XFILLER_15_207 vgnd vpwr scs8hd_decap_12
XANTENNA_mux_top_track_0.mux_l1_in_0__A1 top_left_grid_pin_34_ vgnd vpwr scs8hd_diode_2
XFILLER_23_54 vgnd vpwr scs8hd_fill_1
X_061_ _061_/HI _061_/LO vgnd vpwr scs8hd_conb_1
XFILLER_2_166 vgnd vpwr scs8hd_decap_12
XFILLER_14_251 vgnd vpwr scs8hd_decap_12
XANTENNA_mux_top_track_30.mux_l2_in_0__S mux_top_track_30.mux_l2_in_0_/S vgnd vpwr
+ scs8hd_diode_2
XFILLER_20_254 vgnd vpwr scs8hd_decap_12
XFILLER_20_276 vgnd vpwr scs8hd_fill_1
XFILLER_18_87 vpwr vgnd scs8hd_fill_2
Xmem_left_track_1.scs8hd_dfxbp_1_1_ prog_clk mux_left_track_1.mux_l1_in_0_/S mux_left_track_1.mux_l2_in_0_/S
+ mem_left_track_1.scs8hd_dfxbp_1_1_/QN vgnd vpwr scs8hd_dfxbp_1
XFILLER_11_232 vgnd vpwr scs8hd_decap_12
XANTENNA_mem_top_track_12.scs8hd_dfxbp_1_0__D mux_top_track_10.mux_l2_in_0_/S vgnd
+ vpwr scs8hd_diode_2
XFILLER_7_269 vgnd vpwr scs8hd_decap_8
XANTENNA_mux_top_track_12.scs8hd_buf_4_0__A mux_top_track_12.mux_l2_in_0_/X vgnd vpwr
+ scs8hd_diode_2
X_044_ _044_/HI _044_/LO vgnd vpwr scs8hd_conb_1
XANTENNA_mux_top_track_24.mux_l1_in_0__S mux_top_track_24.mux_l1_in_0_/S vgnd vpwr
+ scs8hd_diode_2
XANTENNA_mux_left_track_5.mux_l3_in_0__S mux_left_track_5.mux_l3_in_0_/S vgnd vpwr
+ scs8hd_diode_2
XFILLER_29_118 vpwr vgnd scs8hd_fill_2
XFILLER_37_195 vgnd vpwr scs8hd_decap_12
XFILLER_37_184 vpwr vgnd scs8hd_fill_2
XANTENNA_mem_top_track_32.scs8hd_dfxbp_1_0__D mux_top_track_30.mux_l2_in_0_/S vgnd
+ vpwr scs8hd_diode_2
XFILLER_4_239 vgnd vpwr scs8hd_decap_12
XFILLER_20_77 vpwr vgnd scs8hd_fill_2
XFILLER_20_88 vpwr vgnd scs8hd_fill_2
XFILLER_29_31 vpwr vgnd scs8hd_fill_2
Xmux_top_track_10.mux_l2_in_0_ _036_/HI mux_top_track_10.mux_l1_in_0_/X mux_top_track_10.mux_l2_in_0_/S
+ mux_top_track_10.mux_l2_in_0_/X vgnd vpwr scs8hd_mux2_1
XFILLER_6_68 vgnd vpwr scs8hd_decap_12
XFILLER_19_195 vgnd vpwr scs8hd_decap_12
XFILLER_34_154 vgnd vpwr scs8hd_decap_12
XANTENNA_mux_top_track_38.scs8hd_buf_4_0__A mux_top_track_38.mux_l2_in_0_/X vgnd vpwr
+ scs8hd_diode_2
Xmem_top_track_6.scs8hd_dfxbp_1_2_ prog_clk mux_top_track_6.mux_l2_in_0_/S mux_top_track_6.mux_l3_in_0_/S
+ mem_top_track_6.scs8hd_dfxbp_1_2_/QN vgnd vpwr scs8hd_dfxbp_1
XANTENNA_mem_left_track_21.scs8hd_dfxbp_1_0__D mux_left_track_19.mux_l2_in_0_/S vgnd
+ vpwr scs8hd_diode_2
XFILLER_40_102 vpwr vgnd scs8hd_fill_2
XFILLER_25_132 vpwr vgnd scs8hd_fill_2
XFILLER_25_165 vpwr vgnd scs8hd_fill_2
XFILLER_25_176 vgnd vpwr scs8hd_decap_6
XFILLER_25_187 vpwr vgnd scs8hd_fill_2
XFILLER_25_198 vpwr vgnd scs8hd_fill_2
Xmux_top_track_18.scs8hd_buf_4_0_ mux_top_track_18.mux_l2_in_0_/X _098_/A vgnd vpwr
+ scs8hd_buf_1
XFILLER_0_242 vgnd vpwr scs8hd_decap_6
XPHY_160 vgnd vpwr scs8hd_tapvpwrvgnd_1
XPHY_171 vgnd vpwr scs8hd_tapvpwrvgnd_1
XPHY_182 vgnd vpwr scs8hd_tapvpwrvgnd_1
XPHY_193 vgnd vpwr scs8hd_tapvpwrvgnd_1
XFILLER_39_202 vpwr vgnd scs8hd_fill_2
XANTENNA_mem_top_track_16.scs8hd_dfxbp_1_0__CLK prog_clk vgnd vpwr scs8hd_diode_2
XFILLER_22_102 vpwr vgnd scs8hd_fill_2
XFILLER_22_135 vgnd vpwr scs8hd_fill_1
XFILLER_13_102 vpwr vgnd scs8hd_fill_2
XFILLER_13_113 vpwr vgnd scs8hd_fill_2
XFILLER_13_168 vgnd vpwr scs8hd_decap_4
XFILLER_13_179 vgnd vpwr scs8hd_decap_4
XFILLER_26_54 vpwr vgnd scs8hd_fill_2
XANTENNA_mux_left_track_21.mux_l1_in_0__S mux_left_track_21.mux_l1_in_0_/S vgnd vpwr
+ scs8hd_diode_2
XFILLER_36_227 vgnd vpwr scs8hd_decap_12
XANTENNA_mux_top_track_10.mux_l2_in_0__A0 _036_/HI vgnd vpwr scs8hd_diode_2
XFILLER_27_227 vgnd vpwr scs8hd_decap_12
XFILLER_37_53 vpwr vgnd scs8hd_fill_2
XFILLER_33_208 vgnd vpwr scs8hd_decap_12
Xmux_left_track_7.mux_l3_in_0_ mux_left_track_7.mux_l2_in_1_/X mux_left_track_7.mux_l2_in_0_/X
+ mux_left_track_7.mux_l3_in_0_/S mux_left_track_7.mux_l3_in_0_/X vgnd vpwr scs8hd_mux2_1
XANTENNA_mem_left_track_17.scs8hd_dfxbp_1_1__CLK prog_clk vgnd vpwr scs8hd_diode_2
XFILLER_32_263 vgnd vpwr scs8hd_decap_12
XFILLER_24_208 vgnd vpwr scs8hd_decap_6
XFILLER_24_219 vgnd vpwr scs8hd_decap_12
XFILLER_15_219 vgnd vpwr scs8hd_decap_12
XFILLER_23_11 vpwr vgnd scs8hd_fill_2
XFILLER_23_241 vgnd vpwr scs8hd_decap_3
X_060_ _060_/HI _060_/LO vgnd vpwr scs8hd_conb_1
XFILLER_3_3 vgnd vpwr scs8hd_decap_12
XFILLER_0_15 vgnd vpwr scs8hd_decap_12
XFILLER_2_178 vgnd vpwr scs8hd_decap_12
XANTENNA_mux_top_track_16.mux_l2_in_0__S mux_top_track_16.mux_l2_in_0_/S vgnd vpwr
+ scs8hd_diode_2
XFILLER_14_263 vgnd vpwr scs8hd_decap_12
XFILLER_36_3 vpwr vgnd scs8hd_fill_2
XANTENNA_mux_left_track_15.scs8hd_buf_4_0__A mux_left_track_15.mux_l2_in_0_/X vgnd
+ vpwr scs8hd_diode_2
XFILLER_20_211 vgnd vpwr scs8hd_decap_3
XFILLER_20_266 vgnd vpwr scs8hd_decap_8
Xmem_left_track_1.scs8hd_dfxbp_1_0_ prog_clk mux_top_track_38.mux_l2_in_0_/S mux_left_track_1.mux_l1_in_0_/S
+ mem_left_track_1.scs8hd_dfxbp_1_0_/QN vgnd vpwr scs8hd_dfxbp_1
XFILLER_18_66 vgnd vpwr scs8hd_decap_3
Xmux_left_track_7.mux_l2_in_1_ _067_/HI left_top_grid_pin_49_ mux_left_track_7.mux_l2_in_0_/S
+ mux_left_track_7.mux_l2_in_1_/X vgnd vpwr scs8hd_mux2_1
X_043_ _043_/HI _043_/LO vgnd vpwr scs8hd_conb_1
Xmux_top_track_26.scs8hd_buf_4_0_ mux_top_track_26.mux_l2_in_0_/X _094_/A vgnd vpwr
+ scs8hd_buf_1
XFILLER_20_45 vgnd vpwr scs8hd_fill_1
XFILLER_28_163 vgnd vpwr scs8hd_decap_8
XFILLER_28_174 vgnd vpwr scs8hd_decap_8
XFILLER_28_185 vgnd vpwr scs8hd_decap_12
XFILLER_34_166 vgnd vpwr scs8hd_decap_12
XFILLER_34_111 vgnd vpwr scs8hd_fill_1
XFILLER_19_163 vgnd vpwr scs8hd_fill_1
Xmem_top_track_6.scs8hd_dfxbp_1_1_ prog_clk mux_top_track_6.mux_l1_in_1_/S mux_top_track_6.mux_l2_in_0_/S
+ mem_top_track_6.scs8hd_dfxbp_1_1_/QN vgnd vpwr scs8hd_dfxbp_1
XFILLER_15_89 vpwr vgnd scs8hd_fill_2
XFILLER_25_100 vgnd vpwr scs8hd_decap_4
XANTENNA_mux_left_track_13.mux_l2_in_0__S mux_left_track_13.mux_l2_in_0_/S vgnd vpwr
+ scs8hd_diode_2
XFILLER_31_136 vgnd vpwr scs8hd_decap_4
XPHY_150 vgnd vpwr scs8hd_tapvpwrvgnd_1
XPHY_161 vgnd vpwr scs8hd_tapvpwrvgnd_1
XPHY_172 vgnd vpwr scs8hd_tapvpwrvgnd_1
XPHY_183 vgnd vpwr scs8hd_tapvpwrvgnd_1
XPHY_194 vgnd vpwr scs8hd_tapvpwrvgnd_1
XFILLER_39_214 vpwr vgnd scs8hd_fill_2
XFILLER_22_158 vgnd vpwr scs8hd_decap_3
Xmux_top_track_10.mux_l1_in_0_ chanx_left_in[15] top_left_grid_pin_35_ mux_top_track_10.mux_l1_in_0_/S
+ mux_top_track_10.mux_l1_in_0_/X vgnd vpwr scs8hd_mux2_1
Xmem_top_track_22.scs8hd_dfxbp_1_1_ prog_clk mux_top_track_22.mux_l1_in_0_/S mux_top_track_22.mux_l2_in_0_/S
+ mem_top_track_22.scs8hd_dfxbp_1_1_/QN vgnd vpwr scs8hd_dfxbp_1
XANTENNA_mux_top_track_2.mux_l1_in_1__A0 top_left_grid_pin_41_ vgnd vpwr scs8hd_diode_2
XFILLER_26_11 vgnd vpwr scs8hd_fill_1
XFILLER_42_32 vgnd vpwr scs8hd_decap_3
XFILLER_9_107 vgnd vpwr scs8hd_decap_12
Xmux_top_track_22.mux_l2_in_0_ _043_/HI mux_top_track_22.mux_l1_in_0_/X mux_top_track_22.mux_l2_in_0_/S
+ mux_top_track_22.mux_l2_in_0_/X vgnd vpwr scs8hd_mux2_1
XFILLER_3_59 vpwr vgnd scs8hd_fill_2
XFILLER_3_15 vgnd vpwr scs8hd_decap_12
XFILLER_36_239 vgnd vpwr scs8hd_decap_12
XANTENNA_mux_top_track_10.mux_l2_in_0__A1 mux_top_track_10.mux_l1_in_0_/X vgnd vpwr
+ scs8hd_diode_2
XANTENNA_mux_left_track_3.mux_l1_in_0__S mux_left_track_3.mux_l1_in_0_/S vgnd vpwr
+ scs8hd_diode_2
XFILLER_27_239 vgnd vpwr scs8hd_decap_4
XFILLER_12_46 vgnd vpwr scs8hd_decap_6
XFILLER_41_220 vgnd vpwr scs8hd_decap_12
Xmux_left_track_15.mux_l2_in_0_ _058_/HI mux_left_track_15.mux_l1_in_0_/X mux_left_track_15.mux_l2_in_0_/S
+ mux_left_track_15.mux_l2_in_0_/X vgnd vpwr scs8hd_mux2_1
XFILLER_18_228 vgnd vpwr scs8hd_decap_12
XANTENNA_mem_left_track_3.scs8hd_dfxbp_1_2__CLK prog_clk vgnd vpwr scs8hd_diode_2
XFILLER_38_7 vgnd vpwr scs8hd_fill_1
XANTENNA_mux_top_track_2.mux_l2_in_0__A0 mux_top_track_2.mux_l1_in_1_/X vgnd vpwr
+ scs8hd_diode_2
XANTENNA_mem_left_track_1.scs8hd_dfxbp_1_0__CLK prog_clk vgnd vpwr scs8hd_diode_2
XFILLER_4_80 vgnd vpwr scs8hd_decap_12
XANTENNA_mux_top_track_6.mux_l2_in_0__S mux_top_track_6.mux_l2_in_0_/S vgnd vpwr scs8hd_diode_2
XFILLER_0_27 vgnd vpwr scs8hd_decap_4
XFILLER_29_3 vgnd vpwr scs8hd_decap_3
Xmux_top_track_34.scs8hd_buf_4_0_ mux_top_track_34.mux_l2_in_0_/X _090_/A vgnd vpwr
+ scs8hd_buf_1
XANTENNA_mem_top_track_34.scs8hd_dfxbp_1_1__CLK prog_clk vgnd vpwr scs8hd_diode_2
Xmem_left_track_9.scs8hd_dfxbp_1_1_ prog_clk mux_left_track_9.mux_l1_in_0_/S mux_left_track_9.mux_l2_in_0_/S
+ mem_left_track_9.scs8hd_dfxbp_1_1_/QN vgnd vpwr scs8hd_dfxbp_1
Xmem_left_track_27.scs8hd_dfxbp_1_1_ prog_clk mux_left_track_27.mux_l1_in_0_/S ccff_tail
+ mem_left_track_27.scs8hd_dfxbp_1_1_/QN vgnd vpwr scs8hd_dfxbp_1
XFILLER_34_88 vpwr vgnd scs8hd_fill_2
XFILLER_34_55 vpwr vgnd scs8hd_fill_2
XFILLER_34_11 vpwr vgnd scs8hd_fill_2
Xmux_left_track_7.mux_l2_in_0_ mux_left_track_7.mux_l1_in_1_/X mux_left_track_7.mux_l1_in_0_/X
+ mux_left_track_7.mux_l2_in_0_/S mux_left_track_7.mux_l2_in_0_/X vgnd vpwr scs8hd_mux2_1
XFILLER_11_245 vgnd vpwr scs8hd_decap_12
X_042_ _042_/HI _042_/LO vgnd vpwr scs8hd_conb_1
XANTENNA_mem_top_track_16.scs8hd_dfxbp_1_1__D mux_top_track_16.mux_l1_in_0_/S vgnd
+ vpwr scs8hd_diode_2
XFILLER_37_131 vpwr vgnd scs8hd_fill_2
XFILLER_37_120 vpwr vgnd scs8hd_fill_2
XFILLER_37_164 vgnd vpwr scs8hd_fill_1
Xmux_top_track_0.mux_l3_in_0_ mux_top_track_0.mux_l2_in_1_/X mux_top_track_0.mux_l2_in_0_/X
+ mux_top_track_0.mux_l3_in_0_/S mux_top_track_0.mux_l3_in_0_/X vgnd vpwr scs8hd_mux2_1
XANTENNA__072__A chany_top_in[5] vgnd vpwr scs8hd_diode_2
XFILLER_20_24 vgnd vpwr scs8hd_decap_4
XANTENNA_mem_top_track_36.scs8hd_dfxbp_1_1__D mux_top_track_36.mux_l1_in_0_/S vgnd
+ vpwr scs8hd_diode_2
XFILLER_28_197 vgnd vpwr scs8hd_decap_12
XFILLER_6_15 vgnd vpwr scs8hd_decap_12
XFILLER_20_7 vpwr vgnd scs8hd_fill_2
XFILLER_34_178 vgnd vpwr scs8hd_decap_12
XFILLER_19_142 vgnd vpwr scs8hd_decap_6
XFILLER_19_153 vgnd vpwr scs8hd_decap_4
XFILLER_19_175 vpwr vgnd scs8hd_fill_2
XANTENNA_mux_top_track_20.mux_l1_in_0__S mux_top_track_20.mux_l1_in_0_/S vgnd vpwr
+ scs8hd_diode_2
Xmem_top_track_6.scs8hd_dfxbp_1_0_ prog_clk mux_top_track_4.mux_l3_in_0_/S mux_top_track_6.mux_l1_in_1_/S
+ mem_top_track_6.scs8hd_dfxbp_1_0_/QN vgnd vpwr scs8hd_dfxbp_1
Xmux_left_track_7.mux_l1_in_1_ left_top_grid_pin_47_ left_top_grid_pin_45_ mux_left_track_7.mux_l1_in_0_/S
+ mux_left_track_7.mux_l1_in_1_/X vgnd vpwr scs8hd_mux2_1
XANTENNA_mux_left_track_1.mux_l3_in_0__S mux_left_track_1.mux_l3_in_0_/S vgnd vpwr
+ scs8hd_diode_2
XFILLER_25_112 vpwr vgnd scs8hd_fill_2
XFILLER_40_137 vgnd vpwr scs8hd_fill_1
XFILLER_15_57 vpwr vgnd scs8hd_fill_2
XFILLER_15_79 vgnd vpwr scs8hd_decap_8
XANTENNA_mem_left_track_25.scs8hd_dfxbp_1_1__D mux_left_track_25.mux_l1_in_0_/S vgnd
+ vpwr scs8hd_diode_2
XFILLER_0_211 vgnd vpwr scs8hd_decap_6
XFILLER_31_115 vgnd vpwr scs8hd_fill_1
XFILLER_16_167 vgnd vpwr scs8hd_decap_12
XPHY_140 vgnd vpwr scs8hd_tapvpwrvgnd_1
XPHY_151 vgnd vpwr scs8hd_tapvpwrvgnd_1
XPHY_162 vgnd vpwr scs8hd_tapvpwrvgnd_1
XPHY_173 vgnd vpwr scs8hd_tapvpwrvgnd_1
XPHY_184 vgnd vpwr scs8hd_tapvpwrvgnd_1
XPHY_195 vgnd vpwr scs8hd_tapvpwrvgnd_1
XANTENNA_mux_left_track_7.mux_l2_in_1__S mux_left_track_7.mux_l2_in_0_/S vgnd vpwr
+ scs8hd_diode_2
Xmux_top_track_0.mux_l2_in_1_ _035_/HI mux_top_track_0.mux_l1_in_2_/X mux_top_track_0.mux_l2_in_0_/S
+ mux_top_track_0.mux_l2_in_1_/X vgnd vpwr scs8hd_mux2_1
XFILLER_39_226 vpwr vgnd scs8hd_fill_2
XFILLER_11_3 vgnd vpwr scs8hd_fill_1
XANTENNA_mem_top_track_2.scs8hd_dfxbp_1_1__CLK prog_clk vgnd vpwr scs8hd_diode_2
Xmem_top_track_22.scs8hd_dfxbp_1_0_ prog_clk mux_top_track_20.mux_l2_in_0_/S mux_top_track_22.mux_l1_in_0_/S
+ mem_top_track_22.scs8hd_dfxbp_1_0_/QN vgnd vpwr scs8hd_dfxbp_1
XANTENNA_mux_left_track_1.mux_l1_in_1__A0 left_top_grid_pin_46_ vgnd vpwr scs8hd_diode_2
XANTENNA_mux_left_track_11.mux_l2_in_0__A0 _056_/HI vgnd vpwr scs8hd_diode_2
XANTENNA_mux_top_track_2.mux_l1_in_1__A1 top_left_grid_pin_39_ vgnd vpwr scs8hd_diode_2
XFILLER_26_45 vgnd vpwr scs8hd_decap_3
XFILLER_26_67 vgnd vpwr scs8hd_decap_4
XFILLER_42_77 vpwr vgnd scs8hd_fill_2
XFILLER_42_66 vgnd vpwr scs8hd_decap_8
XFILLER_42_44 vgnd vpwr scs8hd_decap_12
Xmux_left_track_9.scs8hd_buf_4_0_ mux_left_track_9.mux_l2_in_0_/X _083_/A vgnd vpwr
+ scs8hd_buf_1
XFILLER_9_119 vgnd vpwr scs8hd_decap_3
XFILLER_13_137 vpwr vgnd scs8hd_fill_2
XFILLER_3_27 vgnd vpwr scs8hd_decap_12
XFILLER_8_141 vgnd vpwr scs8hd_decap_12
XFILLER_12_181 vgnd vpwr scs8hd_decap_12
XANTENNA__080__A _080_/A vgnd vpwr scs8hd_diode_2
XFILLER_41_232 vgnd vpwr scs8hd_decap_12
XFILLER_37_99 vgnd vpwr scs8hd_fill_1
Xmux_top_track_0.mux_l1_in_2_ chanx_left_in[0] top_right_grid_pin_1_ mux_top_track_0.mux_l1_in_1_/S
+ mux_top_track_0.mux_l1_in_2_/X vgnd vpwr scs8hd_mux2_1
XFILLER_26_251 vgnd vpwr scs8hd_decap_12
XFILLER_5_111 vgnd vpwr scs8hd_decap_8
Xmux_top_track_2.scs8hd_buf_4_0_ mux_top_track_2.mux_l3_in_0_/X _106_/A vgnd vpwr
+ scs8hd_buf_1
XANTENNA_mux_top_track_2.mux_l2_in_0__A1 mux_top_track_2.mux_l1_in_0_/X vgnd vpwr
+ scs8hd_diode_2
XFILLER_32_276 vgnd vpwr scs8hd_fill_1
XANTENNA_mux_left_track_1.mux_l2_in_0__A0 mux_left_track_1.mux_l1_in_1_/X vgnd vpwr
+ scs8hd_diode_2
XANTENNA_mux_top_track_14.mux_l1_in_0__A0 chanx_left_in[13] vgnd vpwr scs8hd_diode_2
XANTENNA_mem_top_track_18.scs8hd_dfxbp_1_0__D mux_top_track_16.mux_l2_in_0_/S vgnd
+ vpwr scs8hd_diode_2
Xmux_top_track_22.mux_l1_in_0_ chanx_left_in[9] top_left_grid_pin_41_ mux_top_track_22.mux_l1_in_0_/S
+ mux_top_track_22.mux_l1_in_0_/X vgnd vpwr scs8hd_mux2_1
XFILLER_23_57 vpwr vgnd scs8hd_fill_2
XANTENNA__075__A _075_/A vgnd vpwr scs8hd_diode_2
Xmux_top_track_34.mux_l2_in_0_ _049_/HI mux_top_track_34.mux_l1_in_0_/X mux_top_track_34.mux_l2_in_0_/S
+ mux_top_track_34.mux_l2_in_0_/X vgnd vpwr scs8hd_mux2_1
XANTENNA_mem_top_track_38.scs8hd_dfxbp_1_0__D mux_top_track_36.mux_l2_in_0_/S vgnd
+ vpwr scs8hd_diode_2
XFILLER_9_59 vpwr vgnd scs8hd_fill_2
XFILLER_9_15 vgnd vpwr scs8hd_decap_12
XFILLER_14_276 vgnd vpwr scs8hd_fill_1
Xmem_left_track_27.scs8hd_dfxbp_1_0_ prog_clk mux_left_track_25.mux_l2_in_0_/S mux_left_track_27.mux_l1_in_0_/S
+ mem_left_track_27.scs8hd_dfxbp_1_0_/QN vgnd vpwr scs8hd_dfxbp_1
Xmem_left_track_9.scs8hd_dfxbp_1_0_ prog_clk mux_left_track_7.mux_l3_in_0_/S mux_left_track_9.mux_l1_in_0_/S
+ mem_left_track_9.scs8hd_dfxbp_1_0_/QN vgnd vpwr scs8hd_dfxbp_1
Xmux_left_track_15.mux_l1_in_0_ left_top_grid_pin_45_ chany_top_in[13] mux_left_track_15.mux_l1_in_0_/S
+ mux_left_track_15.mux_l1_in_0_/X vgnd vpwr scs8hd_mux2_1
XFILLER_18_24 vgnd vpwr scs8hd_decap_4
XFILLER_18_46 vgnd vpwr scs8hd_fill_1
XFILLER_34_78 vgnd vpwr scs8hd_decap_4
XFILLER_34_23 vpwr vgnd scs8hd_fill_2
XFILLER_11_257 vgnd vpwr scs8hd_decap_12
X_041_ _041_/HI _041_/LO vgnd vpwr scs8hd_conb_1
XANTENNA_mem_left_track_27.scs8hd_dfxbp_1_0__D mux_left_track_25.mux_l2_in_0_/S vgnd
+ vpwr scs8hd_diode_2
Xmux_left_track_27.mux_l2_in_0_ _064_/HI mux_left_track_27.mux_l1_in_0_/X ccff_tail
+ mux_left_track_27.mux_l2_in_0_/X vgnd vpwr scs8hd_mux2_1
XANTENNA_mux_top_track_12.mux_l2_in_0__S mux_top_track_12.mux_l2_in_0_/S vgnd vpwr
+ scs8hd_diode_2
XFILLER_37_154 vpwr vgnd scs8hd_fill_2
XFILLER_37_176 vgnd vpwr scs8hd_decap_6
XFILLER_29_56 vgnd vpwr scs8hd_decap_3
XANTENNA_mem_top_track_14.scs8hd_dfxbp_1_1__CLK prog_clk vgnd vpwr scs8hd_diode_2
XFILLER_10_80 vpwr vgnd scs8hd_fill_2
XFILLER_6_27 vgnd vpwr scs8hd_decap_4
XFILLER_3_220 vgnd vpwr scs8hd_decap_12
XFILLER_13_7 vpwr vgnd scs8hd_fill_2
XFILLER_34_146 vgnd vpwr scs8hd_decap_6
XFILLER_34_102 vgnd vpwr scs8hd_decap_3
XFILLER_19_187 vpwr vgnd scs8hd_fill_2
Xmux_left_track_7.mux_l1_in_0_ left_top_grid_pin_43_ chany_top_in[17] mux_left_track_7.mux_l1_in_0_/S
+ mux_left_track_7.mux_l1_in_0_/X vgnd vpwr scs8hd_mux2_1
XANTENNA__083__A _083_/A vgnd vpwr scs8hd_diode_2
XFILLER_15_25 vpwr vgnd scs8hd_fill_2
XFILLER_31_57 vpwr vgnd scs8hd_fill_2
XPHY_130 vgnd vpwr scs8hd_tapvpwrvgnd_1
XPHY_141 vgnd vpwr scs8hd_tapvpwrvgnd_1
XPHY_152 vgnd vpwr scs8hd_tapvpwrvgnd_1
XFILLER_16_102 vgnd vpwr scs8hd_decap_4
XFILLER_16_146 vgnd vpwr scs8hd_decap_4
XPHY_163 vgnd vpwr scs8hd_tapvpwrvgnd_1
XPHY_174 vgnd vpwr scs8hd_tapvpwrvgnd_1
XPHY_185 vgnd vpwr scs8hd_tapvpwrvgnd_1
XPHY_196 vgnd vpwr scs8hd_tapvpwrvgnd_1
Xmux_top_track_0.mux_l2_in_0_ mux_top_track_0.mux_l1_in_1_/X mux_top_track_0.mux_l1_in_0_/X
+ mux_top_track_0.mux_l2_in_0_/S mux_top_track_0.mux_l2_in_0_/X vgnd vpwr scs8hd_mux2_1
XFILLER_39_249 vpwr vgnd scs8hd_fill_2
XANTENNA_mux_top_track_20.scs8hd_buf_4_0__A mux_top_track_20.mux_l2_in_0_/X vgnd vpwr
+ scs8hd_diode_2
XANTENNA_mux_left_track_1.mux_l1_in_1__A1 left_top_grid_pin_44_ vgnd vpwr scs8hd_diode_2
XANTENNA_mux_left_track_11.mux_l2_in_0__A1 mux_left_track_11.mux_l1_in_0_/X vgnd vpwr
+ scs8hd_diode_2
XANTENNA__078__A _078_/A vgnd vpwr scs8hd_diode_2
XFILLER_26_24 vpwr vgnd scs8hd_fill_2
XFILLER_42_56 vgnd vpwr scs8hd_decap_6
XFILLER_42_23 vgnd vpwr scs8hd_decap_8
XFILLER_21_160 vgnd vpwr scs8hd_fill_1
XFILLER_21_171 vgnd vpwr scs8hd_decap_12
XFILLER_3_39 vgnd vpwr scs8hd_decap_12
XANTENNA_mux_top_track_22.mux_l1_in_0__A0 chanx_left_in[9] vgnd vpwr scs8hd_diode_2
XANTENNA_mem_left_track_13.scs8hd_dfxbp_1_0__CLK prog_clk vgnd vpwr scs8hd_diode_2
XFILLER_12_193 vgnd vpwr scs8hd_decap_12
XFILLER_12_26 vgnd vpwr scs8hd_decap_3
XFILLER_37_67 vgnd vpwr scs8hd_decap_3
Xmux_top_track_0.mux_l1_in_1_ top_left_grid_pin_40_ top_left_grid_pin_38_ mux_top_track_0.mux_l1_in_1_/S
+ mux_top_track_0.mux_l1_in_1_/X vgnd vpwr scs8hd_mux2_1
XFILLER_26_263 vgnd vpwr scs8hd_decap_12
XFILLER_5_123 vgnd vpwr scs8hd_decap_12
XFILLER_17_241 vgnd vpwr scs8hd_decap_3
XANTENNA_mux_left_track_1.mux_l2_in_0__A1 mux_left_track_1.mux_l1_in_0_/X vgnd vpwr
+ scs8hd_diode_2
XANTENNA_mux_top_track_14.mux_l1_in_0__A1 top_left_grid_pin_37_ vgnd vpwr scs8hd_diode_2
XFILLER_4_93 vgnd vpwr scs8hd_decap_12
XANTENNA__091__A _091_/A vgnd vpwr scs8hd_diode_2
XFILLER_9_27 vgnd vpwr scs8hd_decap_12
XANTENNA_mux_left_track_7.scs8hd_buf_4_0__A mux_left_track_7.mux_l3_in_0_/X vgnd vpwr
+ scs8hd_diode_2
XANTENNA_mux_top_track_6.mux_l1_in_0__A0 top_left_grid_pin_37_ vgnd vpwr scs8hd_diode_2
XFILLER_20_203 vgnd vpwr scs8hd_decap_8
XANTENNA_mem_top_track_28.scs8hd_dfxbp_1_0__CLK prog_clk vgnd vpwr scs8hd_diode_2
XFILLER_18_36 vpwr vgnd scs8hd_fill_2
XFILLER_11_269 vgnd vpwr scs8hd_decap_8
XANTENNA__086__A _086_/A vgnd vpwr scs8hd_diode_2
XFILLER_1_3 vgnd vpwr scs8hd_decap_12
X_040_ _040_/HI _040_/LO vgnd vpwr scs8hd_conb_1
Xmux_left_track_19.scs8hd_buf_4_0_ mux_left_track_19.mux_l2_in_0_/X _078_/A vgnd vpwr
+ scs8hd_buf_1
XANTENNA_mux_top_track_2.mux_l2_in_0__S mux_top_track_2.mux_l2_in_0_/S vgnd vpwr scs8hd_diode_2
XFILLER_6_251 vgnd vpwr scs8hd_decap_12
XFILLER_37_188 vgnd vpwr scs8hd_decap_4
XFILLER_37_111 vgnd vpwr scs8hd_decap_3
XANTENNA_mux_top_track_4.mux_l1_in_2__A0 chanx_left_in[18] vgnd vpwr scs8hd_diode_2
XANTENNA_mux_top_track_8.mux_l1_in_1__S mux_top_track_8.mux_l1_in_0_/S vgnd vpwr scs8hd_diode_2
XFILLER_20_48 vpwr vgnd scs8hd_fill_2
Xmux_top_track_34.mux_l1_in_0_ chanx_left_in[3] top_left_grid_pin_39_ mux_top_track_34.mux_l1_in_0_/S
+ mux_top_track_34.mux_l1_in_0_/X vgnd vpwr scs8hd_mux2_1
XFILLER_29_35 vpwr vgnd scs8hd_fill_2
XFILLER_3_232 vgnd vpwr scs8hd_decap_12
XFILLER_42_180 vgnd vpwr scs8hd_decap_6
XFILLER_40_106 vgnd vpwr scs8hd_decap_6
XFILLER_25_136 vgnd vpwr scs8hd_decap_4
Xmux_left_track_27.mux_l1_in_0_ left_top_grid_pin_43_ chany_top_in[7] mux_left_track_27.mux_l1_in_0_/S
+ mux_left_track_27.mux_l1_in_0_/X vgnd vpwr scs8hd_mux2_1
XFILLER_31_36 vpwr vgnd scs8hd_fill_2
XFILLER_31_14 vpwr vgnd scs8hd_fill_2
XANTENNA_mux_top_track_30.mux_l1_in_0__A0 chanx_left_in[5] vgnd vpwr scs8hd_diode_2
XANTENNA_mux_left_track_23.scs8hd_buf_4_0__A mux_left_track_23.mux_l2_in_0_/X vgnd
+ vpwr scs8hd_diode_2
XPHY_131 vgnd vpwr scs8hd_tapvpwrvgnd_1
XPHY_120 vgnd vpwr scs8hd_tapvpwrvgnd_1
XPHY_142 vgnd vpwr scs8hd_tapvpwrvgnd_1
XPHY_153 vgnd vpwr scs8hd_tapvpwrvgnd_1
XFILLER_16_125 vpwr vgnd scs8hd_fill_2
XPHY_164 vgnd vpwr scs8hd_tapvpwrvgnd_1
XPHY_175 vgnd vpwr scs8hd_tapvpwrvgnd_1
XPHY_186 vgnd vpwr scs8hd_tapvpwrvgnd_1
XPHY_197 vgnd vpwr scs8hd_tapvpwrvgnd_1
XFILLER_39_206 vgnd vpwr scs8hd_decap_4
XANTENNA_mux_top_track_4.mux_l2_in_1__A0 _052_/HI vgnd vpwr scs8hd_diode_2
XPHY_0 vgnd vpwr scs8hd_decap_3
XFILLER_22_106 vpwr vgnd scs8hd_fill_2
XFILLER_15_191 vpwr vgnd scs8hd_fill_2
XFILLER_26_14 vgnd vpwr scs8hd_fill_1
XANTENNA__094__A _094_/A vgnd vpwr scs8hd_diode_2
XFILLER_13_106 vpwr vgnd scs8hd_fill_2
XFILLER_13_117 vpwr vgnd scs8hd_fill_2
XANTENNA_mux_top_track_22.mux_l1_in_0__A1 top_left_grid_pin_41_ vgnd vpwr scs8hd_diode_2
XFILLER_8_154 vgnd vpwr scs8hd_decap_12
XFILLER_32_90 vpwr vgnd scs8hd_fill_2
XANTENNA_mux_left_track_3.mux_l2_in_1__S mux_left_track_3.mux_l2_in_0_/S vgnd vpwr
+ scs8hd_diode_2
XFILLER_35_220 vgnd vpwr scs8hd_decap_12
XANTENNA_mux_left_track_15.mux_l1_in_0__A0 left_top_grid_pin_45_ vgnd vpwr scs8hd_diode_2
XANTENNA_mux_top_track_38.mux_l1_in_0__S mux_top_track_38.mux_l1_in_0_/S vgnd vpwr
+ scs8hd_diode_2
XFILLER_37_57 vpwr vgnd scs8hd_fill_2
XANTENNA__089__A _089_/A vgnd vpwr scs8hd_diode_2
XANTENNA_mux_top_track_4.mux_l3_in_0__A0 mux_top_track_4.mux_l2_in_1_/X vgnd vpwr
+ scs8hd_diode_2
XFILLER_41_245 vgnd vpwr scs8hd_decap_12
Xmux_top_track_0.mux_l1_in_0_ top_left_grid_pin_36_ top_left_grid_pin_34_ mux_top_track_0.mux_l1_in_1_/S
+ mux_top_track_0.mux_l1_in_0_/X vgnd vpwr scs8hd_mux2_1
XFILLER_5_135 vgnd vpwr scs8hd_decap_12
XANTENNA_mem_top_track_30.scs8hd_dfxbp_1_0__CLK prog_clk vgnd vpwr scs8hd_diode_2
XFILLER_4_190 vgnd vpwr scs8hd_decap_12
Xmux_left_track_27.scs8hd_buf_4_0_ mux_left_track_27.mux_l2_in_0_/X _074_/A vgnd vpwr
+ scs8hd_buf_1
XFILLER_23_15 vpwr vgnd scs8hd_fill_2
XFILLER_23_245 vgnd vpwr scs8hd_decap_12
XFILLER_2_105 vgnd vpwr scs8hd_decap_12
Xmem_top_track_30.scs8hd_dfxbp_1_1_ prog_clk mux_top_track_30.mux_l1_in_0_/S mux_top_track_30.mux_l2_in_0_/S
+ mem_top_track_30.scs8hd_dfxbp_1_1_/QN vgnd vpwr scs8hd_dfxbp_1
XFILLER_9_39 vgnd vpwr scs8hd_decap_12
XFILLER_13_81 vpwr vgnd scs8hd_fill_2
XFILLER_1_171 vgnd vpwr scs8hd_decap_12
XANTENNA_mux_top_track_6.mux_l1_in_0__A1 top_left_grid_pin_35_ vgnd vpwr scs8hd_diode_2
XANTENNA_mux_left_track_5.mux_l1_in_0__A0 left_top_grid_pin_42_ vgnd vpwr scs8hd_diode_2
XFILLER_7_208 vgnd vpwr scs8hd_decap_12
XFILLER_6_263 vgnd vpwr scs8hd_decap_12
X_099_ _099_/A chany_top_out[8] vgnd vpwr scs8hd_buf_2
XFILLER_1_51 vgnd vpwr scs8hd_decap_8
XFILLER_1_62 vgnd vpwr scs8hd_decap_12
XANTENNA_mux_top_track_4.mux_l1_in_2__A1 top_right_grid_pin_1_ vgnd vpwr scs8hd_diode_2
XANTENNA_mem_top_track_0.scs8hd_dfxbp_1_2__CLK prog_clk vgnd vpwr scs8hd_diode_2
XFILLER_28_101 vgnd vpwr scs8hd_decap_4