* NGSPICE file created from sb_2__2_.ext - technology: sky130A

* Black-box entry subcircuit for sky130_fd_sc_hd__decap_12 abstract view
.subckt sky130_fd_sc_hd__decap_12 VGND VNB VPB VPWR
.ends

* Black-box entry subcircuit for sky130_fd_sc_hd__fill_2 abstract view
.subckt sky130_fd_sc_hd__fill_2 VGND VNB VPB VPWR
.ends

* Black-box entry subcircuit for sky130_fd_sc_hd__mux2_1 abstract view
.subckt sky130_fd_sc_hd__mux2_1 A0 A1 S VGND VNB VPB VPWR X
.ends

* Black-box entry subcircuit for sky130_fd_sc_hd__dfxtp_1 abstract view
.subckt sky130_fd_sc_hd__dfxtp_1 CLK D VGND VNB VPB VPWR Q
.ends

* Black-box entry subcircuit for sky130_fd_sc_hd__diode_2 abstract view
.subckt sky130_fd_sc_hd__diode_2 DIODE VGND VNB VPB VPWR
.ends

* Black-box entry subcircuit for sky130_fd_sc_hd__fill_1 abstract view
.subckt sky130_fd_sc_hd__fill_1 VGND VNB VPB VPWR
.ends

* Black-box entry subcircuit for sky130_fd_sc_hd__decap_3 abstract view
.subckt sky130_fd_sc_hd__decap_3 VGND VNB VPB VPWR
.ends

* Black-box entry subcircuit for sky130_fd_sc_hd__conb_1 abstract view
.subckt sky130_fd_sc_hd__conb_1 VGND VNB VPB VPWR HI LO
.ends

* Black-box entry subcircuit for sky130_fd_sc_hd__decap_4 abstract view
.subckt sky130_fd_sc_hd__decap_4 VGND VNB VPB VPWR
.ends

* Black-box entry subcircuit for sky130_fd_sc_hd__decap_8 abstract view
.subckt sky130_fd_sc_hd__decap_8 VGND VNB VPB VPWR
.ends

* Black-box entry subcircuit for sky130_fd_sc_hd__buf_4 abstract view
.subckt sky130_fd_sc_hd__buf_4 A VGND VNB VPB VPWR X
.ends

* Black-box entry subcircuit for sky130_fd_sc_hd__tapvpwrvgnd_1 abstract view
.subckt sky130_fd_sc_hd__tapvpwrvgnd_1 VGND VPWR
.ends

* Black-box entry subcircuit for sky130_fd_sc_hd__clkbuf_1 abstract view
.subckt sky130_fd_sc_hd__clkbuf_1 A VGND VNB VPB VPWR X
.ends

* Black-box entry subcircuit for sky130_fd_sc_hd__buf_8 abstract view
.subckt sky130_fd_sc_hd__buf_8 A VGND VNB VPB VPWR X
.ends

* Black-box entry subcircuit for sky130_fd_sc_hd__buf_2 abstract view
.subckt sky130_fd_sc_hd__buf_2 A VGND VNB VPB VPWR X
.ends

* Black-box entry subcircuit for sky130_fd_sc_hd__decap_6 abstract view
.subckt sky130_fd_sc_hd__decap_6 VGND VNB VPB VPWR
.ends

* Black-box entry subcircuit for sky130_fd_sc_hd__clkbuf_16 abstract view
.subckt sky130_fd_sc_hd__clkbuf_16 A VGND VNB VPB VPWR X
.ends

.subckt sb_2__2_ SC_IN_BOT SC_OUT_BOT bottom_left_grid_pin_42_ bottom_left_grid_pin_43_
+ bottom_left_grid_pin_44_ bottom_left_grid_pin_45_ bottom_left_grid_pin_46_ bottom_left_grid_pin_47_
+ bottom_left_grid_pin_48_ bottom_left_grid_pin_49_ bottom_right_grid_pin_1_ ccff_head
+ ccff_tail chanx_left_in[0] chanx_left_in[10] chanx_left_in[11] chanx_left_in[12]
+ chanx_left_in[13] chanx_left_in[14] chanx_left_in[15] chanx_left_in[16] chanx_left_in[17]
+ chanx_left_in[18] chanx_left_in[19] chanx_left_in[1] chanx_left_in[2] chanx_left_in[3]
+ chanx_left_in[4] chanx_left_in[5] chanx_left_in[6] chanx_left_in[7] chanx_left_in[8]
+ chanx_left_in[9] chanx_left_out[0] chanx_left_out[10] chanx_left_out[11] chanx_left_out[12]
+ chanx_left_out[13] chanx_left_out[14] chanx_left_out[15] chanx_left_out[16] chanx_left_out[17]
+ chanx_left_out[18] chanx_left_out[19] chanx_left_out[1] chanx_left_out[2] chanx_left_out[3]
+ chanx_left_out[4] chanx_left_out[5] chanx_left_out[6] chanx_left_out[7] chanx_left_out[8]
+ chanx_left_out[9] chany_bottom_in[0] chany_bottom_in[10] chany_bottom_in[11] chany_bottom_in[12]
+ chany_bottom_in[13] chany_bottom_in[14] chany_bottom_in[15] chany_bottom_in[16]
+ chany_bottom_in[17] chany_bottom_in[18] chany_bottom_in[19] chany_bottom_in[1] chany_bottom_in[2]
+ chany_bottom_in[3] chany_bottom_in[4] chany_bottom_in[5] chany_bottom_in[6] chany_bottom_in[7]
+ chany_bottom_in[8] chany_bottom_in[9] chany_bottom_out[0] chany_bottom_out[10] chany_bottom_out[11]
+ chany_bottom_out[12] chany_bottom_out[13] chany_bottom_out[14] chany_bottom_out[15]
+ chany_bottom_out[16] chany_bottom_out[17] chany_bottom_out[18] chany_bottom_out[19]
+ chany_bottom_out[1] chany_bottom_out[2] chany_bottom_out[3] chany_bottom_out[4]
+ chany_bottom_out[5] chany_bottom_out[6] chany_bottom_out[7] chany_bottom_out[8]
+ chany_bottom_out[9] left_bottom_grid_pin_34_ left_bottom_grid_pin_35_ left_bottom_grid_pin_36_
+ left_bottom_grid_pin_37_ left_bottom_grid_pin_38_ left_bottom_grid_pin_39_ left_bottom_grid_pin_40_
+ left_bottom_grid_pin_41_ left_top_grid_pin_1_ prog_clk_0_S_in VPWR VGND
XFILLER_22_166 VGND VGND VPWR VPWR sky130_fd_sc_hd__decap_12
XFILLER_26_74 VGND VGND VPWR VPWR sky130_fd_sc_hd__fill_2
XFILLER_13_100 VGND VGND VPWR VPWR sky130_fd_sc_hd__fill_2
XFILLER_13_155 VGND VGND VPWR VPWR sky130_fd_sc_hd__fill_2
XFILLER_13_188 VGND VGND VPWR VPWR sky130_fd_sc_hd__fill_2
Xmux_bottom_track_3.mux_l1_in_1_ bottom_left_grid_pin_48_ bottom_left_grid_pin_46_
+ mux_bottom_track_3.mux_l1_in_0_/S VGND VGND VPWR VPWR mux_bottom_track_3.mux_l1_in_1_/X
+ sky130_fd_sc_hd__mux2_1
XFILLER_3_78 VGND VGND VPWR VPWR sky130_fd_sc_hd__fill_2
Xmem_left_track_17.sky130_fd_sc_hd__dfxtp_1_0_ clkbuf_3_2_0_mem_bottom_track_1.prog_clk/X
+ mux_left_track_15.mux_l2_in_0_/S VGND VGND VPWR VPWR mux_left_track_17.mux_l1_in_0_/S
+ sky130_fd_sc_hd__dfxtp_1
XANTENNA_mux_bottom_track_11.mux_l1_in_0__A0 chanx_left_in[6] VGND VGND VPWR VPWR
+ sky130_fd_sc_hd__diode_2
XANTENNA_mux_left_track_35.mux_l1_in_0__A1 chany_bottom_in[16] VGND VGND VPWR VPWR
+ sky130_fd_sc_hd__diode_2
XFILLER_10_103 VGND VGND VPWR VPWR sky130_fd_sc_hd__fill_1
XFILLER_10_147 VGND VGND VPWR VPWR sky130_fd_sc_hd__decap_3
XFILLER_10_158 VGND VGND VPWR VPWR sky130_fd_sc_hd__fill_1
XFILLER_12_32 VGND VGND VPWR VPWR sky130_fd_sc_hd__fill_2
XFILLER_12_87 VGND VGND VPWR VPWR sky130_fd_sc_hd__fill_2
XFILLER_5_151 VGND VGND VPWR VPWR sky130_fd_sc_hd__fill_2
XANTENNA_mem_left_track_9.sky130_fd_sc_hd__dfxtp_1_0__CLK clkbuf_3_2_0_mem_bottom_track_1.prog_clk/X
+ VGND VGND VPWR VPWR sky130_fd_sc_hd__diode_2
XFILLER_5_184 VGND VGND VPWR VPWR sky130_fd_sc_hd__fill_2
XFILLER_15_217 VGND VGND VPWR VPWR sky130_fd_sc_hd__decap_3
XFILLER_23_75 VGND VGND VPWR VPWR sky130_fd_sc_hd__fill_2
XFILLER_23_42 VGND VGND VPWR VPWR sky130_fd_sc_hd__fill_2
X_062_ VGND VGND VPWR VPWR _062_/HI _062_/LO sky130_fd_sc_hd__conb_1
XFILLER_2_187 VGND VGND VPWR VPWR sky130_fd_sc_hd__fill_2
XFILLER_2_165 VGND VGND VPWR VPWR sky130_fd_sc_hd__fill_2
XANTENNA_mux_bottom_track_1.mux_l3_in_0__S mux_bottom_track_1.mux_l3_in_0_/S VGND
+ VGND VPWR VPWR sky130_fd_sc_hd__diode_2
XFILLER_12_209 VGND VGND VPWR VPWR sky130_fd_sc_hd__fill_2
XANTENNA_mem_left_track_21.sky130_fd_sc_hd__dfxtp_1_0__CLK clkbuf_3_2_0_mem_bottom_track_1.prog_clk/X
+ VGND VGND VPWR VPWR sky130_fd_sc_hd__diode_2
XANTENNA_mux_bottom_track_7.mux_l2_in_1__S mux_bottom_track_7.mux_l2_in_1_/S VGND
+ VGND VPWR VPWR sky130_fd_sc_hd__diode_2
XANTENNA_mem_bottom_track_27.sky130_fd_sc_hd__dfxtp_1_0__CLK clkbuf_3_5_0_mem_bottom_track_1.prog_clk/X
+ VGND VGND VPWR VPWR sky130_fd_sc_hd__diode_2
XFILLER_18_86 VGND VGND VPWR VPWR sky130_fd_sc_hd__decap_4
X_045_ VGND VGND VPWR VPWR _045_/HI _045_/LO sky130_fd_sc_hd__conb_1
Xmux_bottom_track_17.mux_l1_in_0_ chanx_left_in[9] bottom_left_grid_pin_45_ mux_bottom_track_17.mux_l1_in_0_/S
+ VGND VGND VPWR VPWR mux_bottom_track_17.mux_l1_in_0_/X sky130_fd_sc_hd__mux2_1
XFILLER_20_32 VGND VGND VPWR VPWR sky130_fd_sc_hd__fill_2
XANTENNA_mux_left_track_17.mux_l2_in_0__S mux_left_track_17.mux_l2_in_0_/S VGND VGND
+ VPWR VPWR sky130_fd_sc_hd__diode_2
XFILLER_29_41 VGND VGND VPWR VPWR sky130_fd_sc_hd__fill_2
XANTENNA_mem_left_track_35.sky130_fd_sc_hd__dfxtp_1_1__CLK clkbuf_3_3_0_mem_bottom_track_1.prog_clk/X
+ VGND VGND VPWR VPWR sky130_fd_sc_hd__diode_2
Xmux_bottom_track_29.mux_l2_in_0_ _068_/HI mux_bottom_track_29.mux_l1_in_0_/X mux_bottom_track_29.mux_l2_in_0_/S
+ VGND VGND VPWR VPWR mux_bottom_track_29.mux_l2_in_0_/X sky130_fd_sc_hd__mux2_1
XFILLER_6_23 VGND VGND VPWR VPWR sky130_fd_sc_hd__fill_2
XFILLER_6_45 VGND VGND VPWR VPWR sky130_fd_sc_hd__fill_1
XFILLER_26_109 VGND VGND VPWR VPWR sky130_fd_sc_hd__fill_2
XANTENNA_mux_bottom_track_19.mux_l2_in_0__S mux_bottom_track_19.mux_l2_in_0_/S VGND
+ VGND VPWR VPWR sky130_fd_sc_hd__diode_2
XFILLER_13_3 VGND VGND VPWR VPWR sky130_fd_sc_hd__decap_4
XANTENNA_mem_bottom_track_9.sky130_fd_sc_hd__dfxtp_1_0__D mux_bottom_track_7.mux_l3_in_0_/S
+ VGND VGND VPWR VPWR sky130_fd_sc_hd__diode_2
XANTENNA_mem_left_track_13.sky130_fd_sc_hd__dfxtp_1_1__CLK clkbuf_3_2_0_mem_bottom_track_1.prog_clk/X
+ VGND VGND VPWR VPWR sky130_fd_sc_hd__diode_2
XFILLER_1_219 VGND VGND VPWR VPWR sky130_fd_sc_hd__fill_1
XANTENNA_mem_bottom_track_19.sky130_fd_sc_hd__dfxtp_1_1__CLK clkbuf_3_4_0_mem_bottom_track_1.prog_clk/X
+ VGND VGND VPWR VPWR sky130_fd_sc_hd__diode_2
XFILLER_31_53 VGND VGND VPWR VPWR sky130_fd_sc_hd__decap_8
XFILLER_31_86 VGND VGND VPWR VPWR sky130_fd_sc_hd__decap_12
Xmux_bottom_track_3.sky130_fd_sc_hd__buf_4_0_ mux_bottom_track_3.mux_l3_in_0_/X VGND
+ VGND VPWR VPWR _092_/A sky130_fd_sc_hd__buf_4
XANTENNA_mux_bottom_track_3.mux_l1_in_1__A0 bottom_left_grid_pin_48_ VGND VGND VPWR
+ VPWR sky130_fd_sc_hd__diode_2
XFILLER_31_123 VGND VGND VPWR VPWR sky130_fd_sc_hd__decap_12
XPHY_170 VGND VPWR sky130_fd_sc_hd__tapvpwrvgnd_1
XFILLER_16_142 VGND VGND VPWR VPWR sky130_fd_sc_hd__fill_2
XFILLER_16_186 VGND VGND VPWR VPWR sky130_fd_sc_hd__decap_3
XPHY_181 VGND VPWR sky130_fd_sc_hd__tapvpwrvgnd_1
XANTENNA_mux_left_track_7.mux_l1_in_0__S mux_left_track_7.mux_l1_in_1_/S VGND VGND
+ VPWR VPWR sky130_fd_sc_hd__diode_2
XFILLER_22_178 VGND VGND VPWR VPWR sky130_fd_sc_hd__decap_12
XFILLER_9_105 VGND VGND VPWR VPWR sky130_fd_sc_hd__fill_2
XFILLER_9_116 VGND VGND VPWR VPWR sky130_fd_sc_hd__fill_2
XFILLER_13_167 VGND VGND VPWR VPWR sky130_fd_sc_hd__fill_2
Xmux_bottom_track_3.mux_l1_in_0_ bottom_left_grid_pin_44_ bottom_left_grid_pin_42_
+ mux_bottom_track_3.mux_l1_in_0_/S VGND VGND VPWR VPWR mux_bottom_track_3.mux_l1_in_0_/X
+ sky130_fd_sc_hd__mux2_1
XFILLER_8_160 VGND VGND VPWR VPWR sky130_fd_sc_hd__fill_2
XFILLER_8_182 VGND VGND VPWR VPWR sky130_fd_sc_hd__fill_2
XANTENNA_mux_bottom_track_11.mux_l1_in_0__A1 bottom_left_grid_pin_42_ VGND VGND VPWR
+ VPWR sky130_fd_sc_hd__diode_2
Xclkbuf_1_0_0_mem_bottom_track_1.prog_clk clkbuf_0_mem_bottom_track_1.prog_clk/X VGND
+ VGND VPWR VPWR clkbuf_2_1_0_mem_bottom_track_1.prog_clk/A sky130_fd_sc_hd__clkbuf_1
XANTENNA_mux_bottom_track_3.mux_l2_in_0__A0 mux_bottom_track_3.mux_l1_in_1_/X VGND
+ VGND VPWR VPWR sky130_fd_sc_hd__diode_2
XFILLER_12_55 VGND VGND VPWR VPWR sky130_fd_sc_hd__fill_2
XANTENNA_mem_left_track_27.sky130_fd_sc_hd__dfxtp_1_0__D mux_left_track_25.mux_l2_in_0_/S
+ VGND VGND VPWR VPWR sky130_fd_sc_hd__diode_2
XFILLER_18_215 VGND VGND VPWR VPWR sky130_fd_sc_hd__decap_4
XANTENNA_mux_left_track_1.sky130_fd_sc_hd__buf_4_0__A mux_left_track_1.mux_l3_in_0_/X
+ VGND VGND VPWR VPWR sky130_fd_sc_hd__diode_2
XFILLER_5_196 VGND VGND VPWR VPWR sky130_fd_sc_hd__fill_2
XFILLER_5_130 VGND VGND VPWR VPWR sky130_fd_sc_hd__fill_2
XANTENNA_mux_left_track_29.mux_l2_in_0__A0 _048_/HI VGND VGND VPWR VPWR sky130_fd_sc_hd__diode_2
XANTENNA_mem_bottom_track_3.sky130_fd_sc_hd__dfxtp_1_1__CLK clkbuf_3_0_0_mem_bottom_track_1.prog_clk/X
+ VGND VGND VPWR VPWR sky130_fd_sc_hd__diode_2
X_061_ VGND VGND VPWR VPWR _061_/HI _061_/LO sky130_fd_sc_hd__conb_1
XFILLER_2_199 VGND VGND VPWR VPWR sky130_fd_sc_hd__fill_2
XFILLER_9_56 VGND VGND VPWR VPWR sky130_fd_sc_hd__fill_2
Xmux_left_track_9.sky130_fd_sc_hd__buf_4_0_ mux_left_track_9.mux_l2_in_0_/X VGND VGND
+ VPWR VPWR _075_/A sky130_fd_sc_hd__buf_4
XFILLER_18_65 VGND VGND VPWR VPWR sky130_fd_sc_hd__fill_1
X_044_ VGND VGND VPWR VPWR _044_/HI _044_/LO sky130_fd_sc_hd__conb_1
XANTENNA_mux_left_track_5.mux_l3_in_0__S mux_left_track_5.mux_l3_in_0_/S VGND VGND
+ VPWR VPWR sky130_fd_sc_hd__diode_2
Xmem_bottom_track_25.sky130_fd_sc_hd__dfxtp_1_1_ clkbuf_3_5_0_mem_bottom_track_1.prog_clk/X
+ mux_bottom_track_25.mux_l1_in_1_/S VGND VGND VPWR VPWR mux_bottom_track_25.mux_l2_in_0_/S
+ sky130_fd_sc_hd__dfxtp_1
Xmux_left_track_31.sky130_fd_sc_hd__buf_4_0_ mux_left_track_31.mux_l2_in_0_/X VGND
+ VGND VPWR VPWR _086_/A sky130_fd_sc_hd__buf_4
XFILLER_29_53 VGND VGND VPWR VPWR sky130_fd_sc_hd__fill_2
Xmem_left_track_35.sky130_fd_sc_hd__dfxtp_1_1_ clkbuf_3_3_0_mem_bottom_track_1.prog_clk/X
+ mux_left_track_35.mux_l1_in_0_/S VGND VGND VPWR VPWR mux_left_track_35.mux_l2_in_0_/S
+ sky130_fd_sc_hd__dfxtp_1
XFILLER_19_151 VGND VGND VPWR VPWR sky130_fd_sc_hd__fill_2
XFILLER_19_184 VGND VGND VPWR VPWR sky130_fd_sc_hd__decap_12
XFILLER_1_209 VGND VGND VPWR VPWR sky130_fd_sc_hd__fill_2
XFILLER_25_143 VGND VGND VPWR VPWR sky130_fd_sc_hd__decap_12
XFILLER_15_55 VGND VGND VPWR VPWR sky130_fd_sc_hd__fill_2
XANTENNA_mux_left_track_23.sky130_fd_sc_hd__buf_4_0__A mux_left_track_23.mux_l2_in_0_/X
+ VGND VGND VPWR VPWR sky130_fd_sc_hd__diode_2
XFILLER_31_98 VGND VGND VPWR VPWR sky130_fd_sc_hd__decap_12
XANTENNA_mux_bottom_track_3.mux_l1_in_1__A1 bottom_left_grid_pin_46_ VGND VGND VPWR
+ VPWR sky130_fd_sc_hd__diode_2
XPHY_182 VGND VPWR sky130_fd_sc_hd__tapvpwrvgnd_1
XFILLER_31_135 VGND VGND VPWR VPWR sky130_fd_sc_hd__decap_12
XPHY_171 VGND VPWR sky130_fd_sc_hd__tapvpwrvgnd_1
XPHY_160 VGND VPWR sky130_fd_sc_hd__tapvpwrvgnd_1
XFILLER_16_154 VGND VGND VPWR VPWR sky130_fd_sc_hd__fill_2
Xmux_left_track_25.sky130_fd_sc_hd__buf_4_0_ mux_left_track_25.mux_l2_in_0_/X VGND
+ VGND VPWR VPWR _083_/A sky130_fd_sc_hd__buf_4
XFILLER_22_124 VGND VGND VPWR VPWR sky130_fd_sc_hd__fill_2
XFILLER_30_190 VGND VGND VPWR VPWR sky130_fd_sc_hd__decap_12
Xmem_bottom_track_3.sky130_fd_sc_hd__dfxtp_1_2_ clkbuf_3_1_0_mem_bottom_track_1.prog_clk/X
+ mux_bottom_track_3.mux_l2_in_1_/S VGND VGND VPWR VPWR mux_bottom_track_3.mux_l3_in_0_/S
+ sky130_fd_sc_hd__dfxtp_1
Xmux_bottom_track_29.mux_l1_in_0_ chanx_left_in[15] bottom_left_grid_pin_43_ mux_bottom_track_29.mux_l1_in_0_/S
+ VGND VGND VPWR VPWR mux_bottom_track_29.mux_l1_in_0_/X sky130_fd_sc_hd__mux2_1
XFILLER_26_87 VGND VGND VPWR VPWR sky130_fd_sc_hd__decap_3
XFILLER_13_179 VGND VGND VPWR VPWR sky130_fd_sc_hd__fill_2
XFILLER_3_58 VGND VGND VPWR VPWR sky130_fd_sc_hd__decap_3
XFILLER_3_25 VGND VGND VPWR VPWR sky130_fd_sc_hd__fill_2
Xclkbuf_3_4_0_mem_bottom_track_1.prog_clk clkbuf_3_5_0_mem_bottom_track_1.prog_clk/A
+ VGND VGND VPWR VPWR clkbuf_3_4_0_mem_bottom_track_1.prog_clk/X sky130_fd_sc_hd__clkbuf_1
XANTENNA_mux_left_track_21.mux_l1_in_0__S mux_left_track_21.mux_l1_in_0_/S VGND VGND
+ VPWR VPWR sky130_fd_sc_hd__diode_2
XANTENNA_mem_bottom_track_1.sky130_fd_sc_hd__dfxtp_1_0__D ccff_head VGND VGND VPWR
+ VPWR sky130_fd_sc_hd__diode_2
XANTENNA_mux_left_track_37.mux_l2_in_0__A0 _053_/HI VGND VGND VPWR VPWR sky130_fd_sc_hd__diode_2
XFILLER_8_150 VGND VGND VPWR VPWR sky130_fd_sc_hd__decap_3
XFILLER_8_194 VGND VGND VPWR VPWR sky130_fd_sc_hd__fill_2
XANTENNA_mux_bottom_track_23.mux_l1_in_0__S mux_bottom_track_23.mux_l1_in_0_/S VGND
+ VGND VPWR VPWR sky130_fd_sc_hd__diode_2
XFILLER_10_127 VGND VGND VPWR VPWR sky130_fd_sc_hd__fill_2
XANTENNA_mux_bottom_track_3.mux_l2_in_0__A1 mux_bottom_track_3.mux_l1_in_0_/X VGND
+ VGND VPWR VPWR sky130_fd_sc_hd__diode_2
XFILLER_12_23 VGND VGND VPWR VPWR sky130_fd_sc_hd__fill_2
XFILLER_12_45 VGND VGND VPWR VPWR sky130_fd_sc_hd__fill_2
XANTENNA_mem_left_track_7.sky130_fd_sc_hd__dfxtp_1_0__D mux_left_track_5.mux_l3_in_0_/S
+ VGND VGND VPWR VPWR sky130_fd_sc_hd__diode_2
Xmux_left_track_19.sky130_fd_sc_hd__buf_4_0_ mux_left_track_19.mux_l2_in_0_/X VGND
+ VGND VPWR VPWR _080_/A sky130_fd_sc_hd__buf_4
Xmux_left_track_7.mux_l3_in_0_ mux_left_track_7.mux_l2_in_1_/X mux_left_track_7.mux_l2_in_0_/X
+ mux_left_track_7.mux_l3_in_0_/S VGND VGND VPWR VPWR mux_left_track_7.mux_l3_in_0_/X
+ sky130_fd_sc_hd__mux2_1
XFILLER_24_219 VGND VGND VPWR VPWR sky130_fd_sc_hd__fill_1
XANTENNA_mux_left_track_29.mux_l2_in_0__A1 mux_left_track_29.mux_l1_in_0_/X VGND VGND
+ VPWR VPWR sky130_fd_sc_hd__diode_2
XANTENNA_mem_left_track_19.sky130_fd_sc_hd__dfxtp_1_1__D mux_left_track_19.mux_l1_in_0_/S
+ VGND VGND VPWR VPWR sky130_fd_sc_hd__diode_2
XFILLER_23_55 VGND VGND VPWR VPWR sky130_fd_sc_hd__decap_4
XANTENNA_clkbuf_3_4_0_mem_bottom_track_1.prog_clk_A clkbuf_3_5_0_mem_bottom_track_1.prog_clk/A
+ VGND VGND VPWR VPWR sky130_fd_sc_hd__diode_2
XFILLER_3_3 VGND VGND VPWR VPWR sky130_fd_sc_hd__fill_1
X_060_ VGND VGND VPWR VPWR _060_/HI _060_/LO sky130_fd_sc_hd__conb_1
XFILLER_0_15 VGND VGND VPWR VPWR sky130_fd_sc_hd__fill_2
XFILLER_0_48 VGND VGND VPWR VPWR sky130_fd_sc_hd__decap_3
XANTENNA_mem_bottom_track_17.sky130_fd_sc_hd__dfxtp_1_0__D mux_bottom_track_15.mux_l2_in_0_/S
+ VGND VGND VPWR VPWR sky130_fd_sc_hd__diode_2
XFILLER_9_68 VGND VGND VPWR VPWR sky130_fd_sc_hd__decap_3
XANTENNA_mem_left_track_3.sky130_fd_sc_hd__dfxtp_1_1__CLK clkbuf_3_0_0_mem_bottom_track_1.prog_clk/X
+ VGND VGND VPWR VPWR sky130_fd_sc_hd__diode_2
X_043_ VGND VGND VPWR VPWR _043_/HI _043_/LO sky130_fd_sc_hd__conb_1
XFILLER_7_204 VGND VGND VPWR VPWR sky130_fd_sc_hd__fill_2
XFILLER_11_200 VGND VGND VPWR VPWR sky130_fd_sc_hd__fill_2
Xmux_left_track_7.mux_l2_in_1_ _056_/HI left_bottom_grid_pin_40_ mux_left_track_7.mux_l2_in_1_/S
+ VGND VGND VPWR VPWR mux_left_track_7.mux_l2_in_1_/X sky130_fd_sc_hd__mux2_1
Xmem_bottom_track_25.sky130_fd_sc_hd__dfxtp_1_0_ clkbuf_3_5_0_mem_bottom_track_1.prog_clk/X
+ mux_bottom_track_23.mux_l2_in_0_/S VGND VGND VPWR VPWR mux_bottom_track_25.mux_l1_in_1_/S
+ sky130_fd_sc_hd__dfxtp_1
XANTENNA_mux_left_track_7.sky130_fd_sc_hd__buf_4_0__A mux_left_track_7.mux_l3_in_0_/X
+ VGND VGND VPWR VPWR sky130_fd_sc_hd__diode_2
XFILLER_20_12 VGND VGND VPWR VPWR sky130_fd_sc_hd__fill_2
XFILLER_29_98 VGND VGND VPWR VPWR sky130_fd_sc_hd__fill_1
XFILLER_29_21 VGND VGND VPWR VPWR sky130_fd_sc_hd__fill_2
XFILLER_28_152 VGND VGND VPWR VPWR sky130_fd_sc_hd__fill_1
XANTENNA_mem_bottom_track_21.sky130_fd_sc_hd__dfxtp_1_1__CLK clkbuf_3_5_0_mem_bottom_track_1.prog_clk/X
+ VGND VGND VPWR VPWR sky130_fd_sc_hd__diode_2
XANTENNA_mux_bottom_track_3.mux_l2_in_1__S mux_bottom_track_3.mux_l2_in_1_/S VGND
+ VGND VPWR VPWR sky130_fd_sc_hd__diode_2
Xmem_left_track_35.sky130_fd_sc_hd__dfxtp_1_0_ clkbuf_3_3_0_mem_bottom_track_1.prog_clk/X
+ mux_left_track_33.mux_l2_in_0_/S VGND VGND VPWR VPWR mux_left_track_35.mux_l1_in_0_/S
+ sky130_fd_sc_hd__dfxtp_1
XFILLER_19_163 VGND VGND VPWR VPWR sky130_fd_sc_hd__fill_2
XFILLER_19_196 VGND VGND VPWR VPWR sky130_fd_sc_hd__decap_12
XFILLER_25_155 VGND VGND VPWR VPWR sky130_fd_sc_hd__decap_12
XFILLER_31_33 VGND VGND VPWR VPWR sky130_fd_sc_hd__fill_2
XFILLER_31_11 VGND VGND VPWR VPWR sky130_fd_sc_hd__fill_2
XFILLER_16_122 VGND VGND VPWR VPWR sky130_fd_sc_hd__fill_2
XFILLER_16_166 VGND VGND VPWR VPWR sky130_fd_sc_hd__fill_2
XPHY_183 VGND VPWR sky130_fd_sc_hd__tapvpwrvgnd_1
XFILLER_31_147 VGND VGND VPWR VPWR sky130_fd_sc_hd__decap_12
XPHY_172 VGND VPWR sky130_fd_sc_hd__tapvpwrvgnd_1
XPHY_161 VGND VPWR sky130_fd_sc_hd__tapvpwrvgnd_1
XANTENNA_mem_left_track_37.sky130_fd_sc_hd__dfxtp_1_0__D mux_left_track_35.mux_l2_in_0_/S
+ VGND VGND VPWR VPWR sky130_fd_sc_hd__diode_2
XPHY_150 VGND VPWR sky130_fd_sc_hd__tapvpwrvgnd_1
XANTENNA_mux_left_track_13.mux_l2_in_0__S mux_left_track_13.mux_l2_in_0_/S VGND VGND
+ VPWR VPWR sky130_fd_sc_hd__diode_2
XFILLER_22_136 VGND VGND VPWR VPWR sky130_fd_sc_hd__fill_2
Xmem_bottom_track_3.sky130_fd_sc_hd__dfxtp_1_1_ clkbuf_3_0_0_mem_bottom_track_1.prog_clk/X
+ mux_bottom_track_3.mux_l1_in_0_/S VGND VGND VPWR VPWR mux_bottom_track_3.mux_l2_in_1_/S
+ sky130_fd_sc_hd__dfxtp_1
XANTENNA_mux_bottom_track_15.mux_l2_in_0__S mux_bottom_track_15.mux_l2_in_0_/S VGND
+ VGND VPWR VPWR sky130_fd_sc_hd__diode_2
XFILLER_26_66 VGND VGND VPWR VPWR sky130_fd_sc_hd__fill_2
XFILLER_26_11 VGND VGND VPWR VPWR sky130_fd_sc_hd__fill_2
XFILLER_13_136 VGND VGND VPWR VPWR sky130_fd_sc_hd__decap_3
XANTENNA_mux_bottom_track_13.mux_l2_in_0__A0 _060_/HI VGND VGND VPWR VPWR sky130_fd_sc_hd__diode_2
XANTENNA_mux_left_track_37.mux_l2_in_0__A1 mux_left_track_37.mux_l1_in_0_/X VGND VGND
+ VPWR VPWR sky130_fd_sc_hd__diode_2
XANTENNA_mux_left_track_3.mux_l1_in_0__S mux_left_track_3.mux_l1_in_1_/S VGND VGND
+ VPWR VPWR sky130_fd_sc_hd__diode_2
Xmux_left_track_15.mux_l2_in_0_ _041_/HI mux_left_track_15.mux_l1_in_0_/X mux_left_track_15.mux_l2_in_0_/S
+ VGND VGND VPWR VPWR mux_left_track_15.mux_l2_in_0_/X sky130_fd_sc_hd__mux2_1
XANTENNA_mux_left_track_29.sky130_fd_sc_hd__buf_4_0__A mux_left_track_29.mux_l2_in_0_/X
+ VGND VGND VPWR VPWR sky130_fd_sc_hd__diode_2
XANTENNA_mux_bottom_track_11.sky130_fd_sc_hd__buf_4_0__A mux_bottom_track_11.mux_l2_in_0_/X
+ VGND VGND VPWR VPWR sky130_fd_sc_hd__diode_2
XANTENNA_mux_bottom_track_7.mux_l1_in_0__A0 bottom_left_grid_pin_44_ VGND VGND VPWR
+ VPWR sky130_fd_sc_hd__diode_2
XFILLER_2_179 VGND VGND VPWR VPWR sky130_fd_sc_hd__fill_2
XFILLER_2_113 VGND VGND VPWR VPWR sky130_fd_sc_hd__fill_1
Xprog_clk_0_FTB00 prog_clk_0_S_in VGND VGND VPWR VPWR prog_clk_0_FTB00/X sky130_fd_sc_hd__buf_8
XFILLER_29_3 VGND VGND VPWR VPWR sky130_fd_sc_hd__fill_2
XFILLER_11_212 VGND VGND VPWR VPWR sky130_fd_sc_hd__fill_2
XANTENNA_mux_bottom_track_5.mux_l1_in_2__A0 chanx_left_in[3] VGND VGND VPWR VPWR sky130_fd_sc_hd__diode_2
XFILLER_7_216 VGND VGND VPWR VPWR sky130_fd_sc_hd__fill_2
Xmux_left_track_7.mux_l2_in_0_ mux_left_track_7.mux_l1_in_1_/X mux_left_track_7.mux_l1_in_0_/X
+ mux_left_track_7.mux_l2_in_1_/S VGND VGND VPWR VPWR mux_left_track_7.mux_l2_in_0_/X
+ sky130_fd_sc_hd__mux2_1
X_042_ VGND VGND VPWR VPWR _042_/HI _042_/LO sky130_fd_sc_hd__conb_1
XANTENNA_mem_left_track_11.sky130_fd_sc_hd__dfxtp_1_1__D mux_left_track_11.mux_l1_in_0_/S
+ VGND VGND VPWR VPWR sky130_fd_sc_hd__diode_2
XFILLER_1_81 VGND VGND VPWR VPWR sky130_fd_sc_hd__fill_2
XANTENNA_mem_left_track_25.sky130_fd_sc_hd__dfxtp_1_0__CLK clkbuf_3_3_0_mem_bottom_track_1.prog_clk/X
+ VGND VGND VPWR VPWR sky130_fd_sc_hd__diode_2
XFILLER_4_219 VGND VGND VPWR VPWR sky130_fd_sc_hd__fill_1
XANTENNA__072__A _072_/A VGND VGND VPWR VPWR sky130_fd_sc_hd__diode_2
XFILLER_29_33 VGND VGND VPWR VPWR sky130_fd_sc_hd__fill_2
XFILLER_29_11 VGND VGND VPWR VPWR sky130_fd_sc_hd__fill_2
XFILLER_29_66 VGND VGND VPWR VPWR sky130_fd_sc_hd__fill_2
XFILLER_10_90 VGND VGND VPWR VPWR sky130_fd_sc_hd__fill_2
XFILLER_19_131 VGND VGND VPWR VPWR sky130_fd_sc_hd__fill_2
XANTENNA_mux_bottom_track_5.mux_l2_in_1__A0 _035_/HI VGND VGND VPWR VPWR sky130_fd_sc_hd__diode_2
Xmux_left_track_7.mux_l1_in_1_ left_bottom_grid_pin_38_ left_bottom_grid_pin_36_ mux_left_track_7.mux_l1_in_1_/S
+ VGND VGND VPWR VPWR mux_left_track_7.mux_l1_in_1_/X sky130_fd_sc_hd__mux2_1
XANTENNA_mux_left_track_1.mux_l3_in_0__S mux_left_track_1.mux_l3_in_0_/S VGND VGND
+ VPWR VPWR sky130_fd_sc_hd__diode_2
XANTENNA_mem_left_track_39.sky130_fd_sc_hd__dfxtp_1_1__CLK clkbuf_3_7_0_mem_bottom_track_1.prog_clk/X
+ VGND VGND VPWR VPWR sky130_fd_sc_hd__diode_2
XFILLER_25_167 VGND VGND VPWR VPWR sky130_fd_sc_hd__decap_12
XFILLER_15_68 VGND VGND VPWR VPWR sky130_fd_sc_hd__fill_2
XFILLER_15_79 VGND VGND VPWR VPWR sky130_fd_sc_hd__fill_2
XFILLER_31_45 VGND VGND VPWR VPWR sky130_fd_sc_hd__fill_2
XANTENNA_mux_bottom_track_21.mux_l2_in_0__A0 _064_/HI VGND VGND VPWR VPWR sky130_fd_sc_hd__diode_2
XANTENNA_mux_bottom_track_5.sky130_fd_sc_hd__buf_4_0__A mux_bottom_track_5.mux_l3_in_0_/X
+ VGND VGND VPWR VPWR sky130_fd_sc_hd__diode_2
XFILLER_16_134 VGND VGND VPWR VPWR sky130_fd_sc_hd__fill_2
XFILLER_16_178 VGND VGND VPWR VPWR sky130_fd_sc_hd__fill_2
XPHY_184 VGND VPWR sky130_fd_sc_hd__tapvpwrvgnd_1
XFILLER_31_159 VGND VGND VPWR VPWR sky130_fd_sc_hd__decap_12
XPHY_173 VGND VPWR sky130_fd_sc_hd__tapvpwrvgnd_1
XPHY_162 VGND VPWR sky130_fd_sc_hd__tapvpwrvgnd_1
XPHY_151 VGND VPWR sky130_fd_sc_hd__tapvpwrvgnd_1
XPHY_140 VGND VPWR sky130_fd_sc_hd__tapvpwrvgnd_1
XANTENNA_mux_left_track_7.mux_l2_in_1__S mux_left_track_7.mux_l2_in_1_/S VGND VGND
+ VPWR VPWR sky130_fd_sc_hd__diode_2
XANTENNA_mem_left_track_17.sky130_fd_sc_hd__dfxtp_1_1__CLK clkbuf_3_2_0_mem_bottom_track_1.prog_clk/X
+ VGND VGND VPWR VPWR sky130_fd_sc_hd__diode_2
XFILLER_11_3 VGND VGND VPWR VPWR sky130_fd_sc_hd__decap_4
Xmem_bottom_track_3.sky130_fd_sc_hd__dfxtp_1_0_ clkbuf_3_0_0_mem_bottom_track_1.prog_clk/X
+ mux_bottom_track_1.mux_l3_in_0_/S VGND VGND VPWR VPWR mux_bottom_track_3.mux_l1_in_0_/S
+ sky130_fd_sc_hd__dfxtp_1
XANTENNA_mux_left_track_11.mux_l2_in_0__A0 _039_/HI VGND VGND VPWR VPWR sky130_fd_sc_hd__diode_2
XANTENNA_mux_left_track_1.mux_l1_in_1__A0 left_bottom_grid_pin_37_ VGND VGND VPWR
+ VPWR sky130_fd_sc_hd__diode_2
XFILLER_13_104 VGND VGND VPWR VPWR sky130_fd_sc_hd__decap_4
XFILLER_13_159 VGND VGND VPWR VPWR sky130_fd_sc_hd__fill_2
XANTENNA_mux_bottom_track_13.mux_l2_in_0__A1 mux_bottom_track_13.mux_l1_in_0_/X VGND
+ VGND VPWR VPWR sky130_fd_sc_hd__diode_2
XANTENNA_mem_left_track_29.sky130_fd_sc_hd__dfxtp_1_1__D mux_left_track_29.mux_l1_in_0_/S
+ VGND VGND VPWR VPWR sky130_fd_sc_hd__diode_2
XANTENNA_mux_bottom_track_5.mux_l3_in_0__A0 mux_bottom_track_5.mux_l2_in_1_/X VGND
+ VGND VPWR VPWR sky130_fd_sc_hd__diode_2
XFILLER_12_181 VGND VGND VPWR VPWR sky130_fd_sc_hd__fill_2
XANTENNA_mem_bottom_track_27.sky130_fd_sc_hd__dfxtp_1_0__D mux_bottom_track_25.mux_l2_in_0_/S
+ VGND VGND VPWR VPWR sky130_fd_sc_hd__diode_2
XANTENNA__080__A _080_/A VGND VGND VPWR VPWR sky130_fd_sc_hd__diode_2
XFILLER_5_155 VGND VGND VPWR VPWR sky130_fd_sc_hd__fill_2
XFILLER_5_188 VGND VGND VPWR VPWR sky130_fd_sc_hd__fill_2
XANTENNA_mux_left_track_1.mux_l2_in_0__A0 mux_left_track_1.mux_l1_in_1_/X VGND VGND
+ VPWR VPWR sky130_fd_sc_hd__diode_2
XFILLER_4_81 VGND VGND VPWR VPWR sky130_fd_sc_hd__fill_2
XANTENNA_mux_bottom_track_7.mux_l1_in_0__A1 bottom_left_grid_pin_42_ VGND VGND VPWR
+ VPWR sky130_fd_sc_hd__diode_2
XANTENNA__075__A _075_/A VGND VGND VPWR VPWR sky130_fd_sc_hd__diode_2
XFILLER_23_79 VGND VGND VPWR VPWR sky130_fd_sc_hd__decap_3
XFILLER_23_46 VGND VGND VPWR VPWR sky130_fd_sc_hd__fill_2
XFILLER_23_35 VGND VGND VPWR VPWR sky130_fd_sc_hd__decap_4
Xmem_bottom_track_9.sky130_fd_sc_hd__dfxtp_1_1_ clkbuf_3_4_0_mem_bottom_track_1.prog_clk/X
+ mux_bottom_track_9.mux_l1_in_0_/S VGND VGND VPWR VPWR mux_bottom_track_9.mux_l2_in_0_/S
+ sky130_fd_sc_hd__dfxtp_1
XFILLER_0_28 VGND VGND VPWR VPWR sky130_fd_sc_hd__decap_3
XFILLER_14_210 VGND VGND VPWR VPWR sky130_fd_sc_hd__decap_4
XFILLER_1_180 VGND VGND VPWR VPWR sky130_fd_sc_hd__decap_3
XANTENNA_mem_bottom_track_7.sky130_fd_sc_hd__dfxtp_1_1__CLK clkbuf_3_1_0_mem_bottom_track_1.prog_clk/X
+ VGND VGND VPWR VPWR sky130_fd_sc_hd__diode_2
XANTENNA_mux_left_track_39.mux_l1_in_0__S mux_left_track_39.mux_l1_in_0_/S VGND VGND
+ VPWR VPWR sky130_fd_sc_hd__diode_2
Xmux_left_track_15.mux_l1_in_0_ left_bottom_grid_pin_36_ chany_bottom_in[6] mux_left_track_15.mux_l1_in_0_/S
+ VGND VGND VPWR VPWR mux_left_track_15.mux_l1_in_0_/X sky130_fd_sc_hd__mux2_1
X_110_ chanx_left_in[0] VGND VGND VPWR VPWR chany_bottom_out[19] sky130_fd_sc_hd__buf_2
XANTENNA_mux_bottom_track_5.mux_l1_in_2__A1 bottom_left_grid_pin_49_ VGND VGND VPWR
+ VPWR sky130_fd_sc_hd__diode_2
X_041_ VGND VGND VPWR VPWR _041_/HI _041_/LO sky130_fd_sc_hd__conb_1
XANTENNA_clkbuf_0_mem_bottom_track_1.prog_clk_A prog_clk_0_FTB00/X VGND VGND VPWR
+ VPWR sky130_fd_sc_hd__diode_2
Xmux_left_track_27.mux_l2_in_0_ _047_/HI mux_left_track_27.mux_l1_in_0_/X mux_left_track_27.mux_l2_in_0_/S
+ VGND VGND VPWR VPWR mux_left_track_27.mux_l2_in_0_/X sky130_fd_sc_hd__mux2_1
XFILLER_20_36 VGND VGND VPWR VPWR sky130_fd_sc_hd__fill_2
XFILLER_29_78 VGND VGND VPWR VPWR sky130_fd_sc_hd__fill_2
XFILLER_29_45 VGND VGND VPWR VPWR sky130_fd_sc_hd__fill_2
XFILLER_28_154 VGND VGND VPWR VPWR sky130_fd_sc_hd__decap_12
XFILLER_28_132 VGND VGND VPWR VPWR sky130_fd_sc_hd__decap_12
XANTENNA_mux_bottom_track_17.sky130_fd_sc_hd__buf_4_0__A mux_bottom_track_17.mux_l2_in_0_/X
+ VGND VGND VPWR VPWR sky130_fd_sc_hd__diode_2
XFILLER_6_27 VGND VGND VPWR VPWR sky130_fd_sc_hd__fill_2
XFILLER_19_143 VGND VGND VPWR VPWR sky130_fd_sc_hd__fill_2
Xmux_bottom_track_11.sky130_fd_sc_hd__buf_4_0_ mux_bottom_track_11.mux_l2_in_0_/X
+ VGND VGND VPWR VPWR _096_/A sky130_fd_sc_hd__buf_4
XFILLER_25_135 VGND VGND VPWR VPWR sky130_fd_sc_hd__fill_2
Xmux_left_track_7.mux_l1_in_0_ left_bottom_grid_pin_34_ chany_bottom_in[2] mux_left_track_7.mux_l1_in_1_/S
+ VGND VGND VPWR VPWR mux_left_track_7.mux_l1_in_0_/X sky130_fd_sc_hd__mux2_1
XANTENNA_mux_bottom_track_5.mux_l2_in_1__A1 mux_bottom_track_5.mux_l1_in_2_/X VGND
+ VGND VPWR VPWR sky130_fd_sc_hd__diode_2
XANTENNA__083__A _083_/A VGND VGND VPWR VPWR sky130_fd_sc_hd__diode_2
XFILLER_25_179 VGND VGND VPWR VPWR sky130_fd_sc_hd__decap_4
XANTENNA_mux_bottom_track_21.mux_l2_in_0__A1 mux_bottom_track_21.mux_l1_in_0_/X VGND
+ VGND VPWR VPWR sky130_fd_sc_hd__diode_2
XFILLER_24_190 VGND VGND VPWR VPWR sky130_fd_sc_hd__decap_12
XPHY_152 VGND VPWR sky130_fd_sc_hd__tapvpwrvgnd_1
XFILLER_16_146 VGND VGND VPWR VPWR sky130_fd_sc_hd__fill_2
XPHY_130 VGND VPWR sky130_fd_sc_hd__tapvpwrvgnd_1
XPHY_141 VGND VPWR sky130_fd_sc_hd__tapvpwrvgnd_1
XPHY_185 VGND VPWR sky130_fd_sc_hd__tapvpwrvgnd_1
XPHY_174 VGND VPWR sky130_fd_sc_hd__tapvpwrvgnd_1
XPHY_163 VGND VPWR sky130_fd_sc_hd__tapvpwrvgnd_1
XFILLER_22_116 VGND VGND VPWR VPWR sky130_fd_sc_hd__fill_2
XANTENNA_mem_bottom_track_3.sky130_fd_sc_hd__dfxtp_1_1__D mux_bottom_track_3.mux_l1_in_0_/S
+ VGND VGND VPWR VPWR sky130_fd_sc_hd__diode_2
XANTENNA_mux_left_track_1.mux_l1_in_1__A1 left_bottom_grid_pin_35_ VGND VGND VPWR
+ VPWR sky130_fd_sc_hd__diode_2
XANTENNA_mux_left_track_11.mux_l2_in_0__A1 mux_left_track_11.mux_l1_in_0_/X VGND VGND
+ VPWR VPWR sky130_fd_sc_hd__diode_2
XANTENNA__078__A _078_/A VGND VGND VPWR VPWR sky130_fd_sc_hd__diode_2
XANTENNA_mux_bottom_track_5.mux_l1_in_2__S mux_bottom_track_5.mux_l1_in_0_/S VGND
+ VGND VPWR VPWR sky130_fd_sc_hd__diode_2
XANTENNA_mem_left_track_9.sky130_fd_sc_hd__dfxtp_1_1__D mux_left_track_9.mux_l1_in_0_/S
+ VGND VGND VPWR VPWR sky130_fd_sc_hd__diode_2
XANTENNA_mux_bottom_track_5.mux_l3_in_0__A1 mux_bottom_track_5.mux_l2_in_0_/X VGND
+ VGND VPWR VPWR sky130_fd_sc_hd__diode_2
XFILLER_16_90 VGND VGND VPWR VPWR sky130_fd_sc_hd__fill_2
XFILLER_8_186 VGND VGND VPWR VPWR sky130_fd_sc_hd__fill_2
XFILLER_12_193 VGND VGND VPWR VPWR sky130_fd_sc_hd__fill_2
XFILLER_27_208 VGND VGND VPWR VPWR sky130_fd_sc_hd__decap_12