* NGSPICE file created from sb_2__1_.ext - technology: sky130A

* Black-box entry subcircuit for sky130_fd_sc_hd__fill_1 abstract view
.subckt sky130_fd_sc_hd__fill_1 VGND VNB VPB VPWR
.ends

* Black-box entry subcircuit for sky130_fd_sc_hd__decap_3 abstract view
.subckt sky130_fd_sc_hd__decap_3 VGND VNB VPB VPWR
.ends

* Black-box entry subcircuit for sky130_fd_sc_hd__fill_2 abstract view
.subckt sky130_fd_sc_hd__fill_2 VGND VNB VPB VPWR
.ends

* Black-box entry subcircuit for sky130_fd_sc_hd__decap_4 abstract view
.subckt sky130_fd_sc_hd__decap_4 VGND VNB VPB VPWR
.ends

* Black-box entry subcircuit for sky130_fd_sc_hd__diode_2 abstract view
.subckt sky130_fd_sc_hd__diode_2 DIODE VGND VNB VPB VPWR
.ends

* Black-box entry subcircuit for sky130_fd_sc_hd__decap_12 abstract view
.subckt sky130_fd_sc_hd__decap_12 VGND VNB VPB VPWR
.ends

* Black-box entry subcircuit for sky130_fd_sc_hd__mux2_1 abstract view
.subckt sky130_fd_sc_hd__mux2_1 A0 A1 S X VGND VNB VPB VPWR
.ends

* Black-box entry subcircuit for sky130_fd_sc_hd__decap_8 abstract view
.subckt sky130_fd_sc_hd__decap_8 VGND VNB VPB VPWR
.ends

* Black-box entry subcircuit for sky130_fd_sc_hd__buf_2 abstract view
.subckt sky130_fd_sc_hd__buf_2 A X VGND VNB VPB VPWR
.ends

* Black-box entry subcircuit for sky130_fd_sc_hd__dfxbp_1 abstract view
.subckt sky130_fd_sc_hd__dfxbp_1 D Q Q_N CLK VGND VNB VPB VPWR
.ends

* Black-box entry subcircuit for sky130_fd_sc_hd__conb_1 abstract view
.subckt sky130_fd_sc_hd__conb_1 HI LO VGND VNB VPB VPWR
.ends

* Black-box entry subcircuit for sky130_fd_sc_hd__buf_1 abstract view
.subckt sky130_fd_sc_hd__buf_1 A X VGND VNB VPB VPWR
.ends

* Black-box entry subcircuit for sky130_fd_sc_hd__tapvpwrvgnd_1 abstract view
.subckt sky130_fd_sc_hd__tapvpwrvgnd_1 VGND VPWR
.ends

* Black-box entry subcircuit for sky130_fd_sc_hd__decap_6 abstract view
.subckt sky130_fd_sc_hd__decap_6 VGND VNB VPB VPWR
.ends

.subckt sb_2__1_ bottom_left_grid_pin_34_ bottom_left_grid_pin_35_ bottom_left_grid_pin_36_
+ bottom_left_grid_pin_37_ bottom_left_grid_pin_38_ bottom_left_grid_pin_39_ bottom_left_grid_pin_40_
+ bottom_left_grid_pin_41_ bottom_right_grid_pin_1_ ccff_head ccff_tail chanx_left_in[0]
+ chanx_left_in[10] chanx_left_in[11] chanx_left_in[12] chanx_left_in[13] chanx_left_in[14]
+ chanx_left_in[15] chanx_left_in[16] chanx_left_in[17] chanx_left_in[18] chanx_left_in[19]
+ chanx_left_in[1] chanx_left_in[2] chanx_left_in[3] chanx_left_in[4] chanx_left_in[5]
+ chanx_left_in[6] chanx_left_in[7] chanx_left_in[8] chanx_left_in[9] chanx_left_out[0]
+ chanx_left_out[10] chanx_left_out[11] chanx_left_out[12] chanx_left_out[13] chanx_left_out[14]
+ chanx_left_out[15] chanx_left_out[16] chanx_left_out[17] chanx_left_out[18] chanx_left_out[19]
+ chanx_left_out[1] chanx_left_out[2] chanx_left_out[3] chanx_left_out[4] chanx_left_out[5]
+ chanx_left_out[6] chanx_left_out[7] chanx_left_out[8] chanx_left_out[9] chany_bottom_in[0]
+ chany_bottom_in[10] chany_bottom_in[11] chany_bottom_in[12] chany_bottom_in[13]
+ chany_bottom_in[14] chany_bottom_in[15] chany_bottom_in[16] chany_bottom_in[17]
+ chany_bottom_in[18] chany_bottom_in[19] chany_bottom_in[1] chany_bottom_in[2] chany_bottom_in[3]
+ chany_bottom_in[4] chany_bottom_in[5] chany_bottom_in[6] chany_bottom_in[7] chany_bottom_in[8]
+ chany_bottom_in[9] chany_bottom_out[0] chany_bottom_out[10] chany_bottom_out[11]
+ chany_bottom_out[12] chany_bottom_out[13] chany_bottom_out[14] chany_bottom_out[15]
+ chany_bottom_out[16] chany_bottom_out[17] chany_bottom_out[18] chany_bottom_out[19]
+ chany_bottom_out[1] chany_bottom_out[2] chany_bottom_out[3] chany_bottom_out[4]
+ chany_bottom_out[5] chany_bottom_out[6] chany_bottom_out[7] chany_bottom_out[8]
+ chany_bottom_out[9] chany_top_in[0] chany_top_in[10] chany_top_in[11] chany_top_in[12]
+ chany_top_in[13] chany_top_in[14] chany_top_in[15] chany_top_in[16] chany_top_in[17]
+ chany_top_in[18] chany_top_in[19] chany_top_in[1] chany_top_in[2] chany_top_in[3]
+ chany_top_in[4] chany_top_in[5] chany_top_in[6] chany_top_in[7] chany_top_in[8]
+ chany_top_in[9] chany_top_out[0] chany_top_out[10] chany_top_out[11] chany_top_out[12]
+ chany_top_out[13] chany_top_out[14] chany_top_out[15] chany_top_out[16] chany_top_out[17]
+ chany_top_out[18] chany_top_out[19] chany_top_out[1] chany_top_out[2] chany_top_out[3]
+ chany_top_out[4] chany_top_out[5] chany_top_out[6] chany_top_out[7] chany_top_out[8]
+ chany_top_out[9] left_top_grid_pin_42_ left_top_grid_pin_43_ left_top_grid_pin_44_
+ left_top_grid_pin_45_ left_top_grid_pin_46_ left_top_grid_pin_47_ left_top_grid_pin_48_
+ left_top_grid_pin_49_ prog_clk top_left_grid_pin_34_ top_left_grid_pin_35_ top_left_grid_pin_36_
+ top_left_grid_pin_37_ top_left_grid_pin_38_ top_left_grid_pin_39_ top_left_grid_pin_40_
+ top_left_grid_pin_41_ top_right_grid_pin_1_ VPWR VGND
XFILLER_22_122 VGND VGND VPWR VPWR sky130_fd_sc_hd__fill_1
XFILLER_7_7 VGND VGND VPWR VPWR sky130_fd_sc_hd__decap_3
XFILLER_26_41 VGND VGND VPWR VPWR sky130_fd_sc_hd__fill_2
XFILLER_9_126 VGND VGND VPWR VPWR sky130_fd_sc_hd__decap_4
XANTENNA_mux_top_track_16.mux_l1_in_2__S mux_top_track_16.mux_l1_in_0_/S VGND VGND
+ VPWR VPWR sky130_fd_sc_hd__diode_2
XFILLER_13_188 VGND VGND VPWR VPWR sky130_fd_sc_hd__decap_12
XFILLER_3_12 VGND VGND VPWR VPWR sky130_fd_sc_hd__fill_1
Xmux_bottom_track_3.mux_l1_in_1_ bottom_left_grid_pin_36_ bottom_left_grid_pin_34_
+ mux_bottom_track_3.mux_l1_in_0_/S mux_bottom_track_3.mux_l1_in_1_/X VGND VGND VPWR
+ VPWR sky130_fd_sc_hd__mux2_1
XANTENNA_mem_bottom_track_1.sky130_fd_sc_hd__dfxbp_1_1__D mux_bottom_track_1.mux_l1_in_0_/S
+ VGND VGND VPWR VPWR sky130_fd_sc_hd__diode_2
XFILLER_27_269 VGND VGND VPWR VPWR sky130_fd_sc_hd__decap_8
XFILLER_10_158 VGND VGND VPWR VPWR sky130_fd_sc_hd__fill_1
XANTENNA_mem_left_track_7.sky130_fd_sc_hd__dfxbp_1_1__D mux_left_track_7.mux_l1_in_2_/S
+ VGND VGND VPWR VPWR sky130_fd_sc_hd__diode_2
XFILLER_12_76 VGND VGND VPWR VPWR sky130_fd_sc_hd__fill_2
XFILLER_37_95 VGND VGND VPWR VPWR sky130_fd_sc_hd__decap_8
XFILLER_5_162 VGND VGND VPWR VPWR sky130_fd_sc_hd__fill_2
XFILLER_24_239 VGND VGND VPWR VPWR sky130_fd_sc_hd__decap_12
XANTENNA_mem_top_track_24.sky130_fd_sc_hd__dfxbp_1_0__CLK prog_clk VGND VGND VPWR
+ VPWR sky130_fd_sc_hd__diode_2
XANTENNA_mux_top_track_0.mux_l1_in_0__A0 top_left_grid_pin_36_ VGND VGND VPWR VPWR
+ sky130_fd_sc_hd__diode_2
X_062_ _062_/A chanx_left_out[11] VGND VGND VPWR VPWR sky130_fd_sc_hd__buf_2
XFILLER_23_75 VGND VGND VPWR VPWR sky130_fd_sc_hd__decap_4
XFILLER_23_53 VGND VGND VPWR VPWR sky130_fd_sc_hd__fill_2
XANTENNA_mux_bottom_track_1.mux_l3_in_0__S mux_bottom_track_1.mux_l3_in_1_/S VGND
+ VGND VPWR VPWR sky130_fd_sc_hd__diode_2
XANTENNA_mem_bottom_track_17.sky130_fd_sc_hd__dfxbp_1_1__D mux_bottom_track_17.mux_l1_in_0_/S
+ VGND VGND VPWR VPWR sky130_fd_sc_hd__diode_2
Xmem_bottom_track_5.sky130_fd_sc_hd__dfxbp_1_3_ mux_bottom_track_5.mux_l3_in_1_/S
+ mux_bottom_track_5.mux_l4_in_0_/S mem_bottom_track_5.sky130_fd_sc_hd__dfxbp_1_3_/Q_N
+ prog_clk VGND VGND VPWR VPWR sky130_fd_sc_hd__dfxbp_1
XFILLER_11_220 VGND VGND VPWR VPWR sky130_fd_sc_hd__decap_12
XFILLER_7_257 VGND VGND VPWR VPWR sky130_fd_sc_hd__decap_12
X_045_ _045_/HI _045_/LO VGND VGND VPWR VPWR sky130_fd_sc_hd__conb_1
XANTENNA_mem_top_track_16.sky130_fd_sc_hd__dfxbp_1_1__CLK prog_clk VGND VGND VPWR
+ VPWR sky130_fd_sc_hd__diode_2
XANTENNA_mux_bottom_track_25.mux_l3_in_0__S mux_bottom_track_25.mux_l3_in_0_/S VGND
+ VGND VPWR VPWR sky130_fd_sc_hd__diode_2
Xmux_bottom_track_17.mux_l1_in_0_ chany_top_in[17] chany_top_in[8] mux_bottom_track_17.mux_l1_in_0_/S
+ mux_bottom_track_17.mux_l1_in_0_/X VGND VGND VPWR VPWR sky130_fd_sc_hd__mux2_1
XANTENNA_mux_left_track_17.mux_l2_in_0__S mux_left_track_17.mux_l2_in_0_/S VGND VGND
+ VPWR VPWR sky130_fd_sc_hd__diode_2
XFILLER_4_205 VGND VGND VPWR VPWR sky130_fd_sc_hd__fill_2
XFILLER_4_227 VGND VGND VPWR VPWR sky130_fd_sc_hd__decap_12
XFILLER_20_10 VGND VGND VPWR VPWR sky130_fd_sc_hd__fill_2
XFILLER_29_30 VGND VGND VPWR VPWR sky130_fd_sc_hd__fill_2
X_028_ _028_/HI _028_/LO VGND VGND VPWR VPWR sky130_fd_sc_hd__conb_1
XFILLER_34_131 VGND VGND VPWR VPWR sky130_fd_sc_hd__fill_2
XFILLER_40_101 VGND VGND VPWR VPWR sky130_fd_sc_hd__fill_2
XFILLER_15_32 VGND VGND VPWR VPWR sky130_fd_sc_hd__fill_2
XFILLER_40_145 VGND VGND VPWR VPWR sky130_fd_sc_hd__decap_8
XFILLER_40_123 VGND VGND VPWR VPWR sky130_fd_sc_hd__decap_12
XFILLER_31_42 VGND VGND VPWR VPWR sky130_fd_sc_hd__fill_2
XFILLER_31_97 VGND VGND VPWR VPWR sky130_fd_sc_hd__decap_4
XANTENNA_mux_bottom_track_3.mux_l1_in_1__A0 bottom_left_grid_pin_36_ VGND VGND VPWR
+ VPWR sky130_fd_sc_hd__diode_2
Xmux_bottom_track_3.sky130_fd_sc_hd__buf_4_0_ mux_bottom_track_3.mux_l4_in_0_/X _092_/A
+ VGND VGND VPWR VPWR sky130_fd_sc_hd__buf_1
XFILLER_31_134 VGND VGND VPWR VPWR sky130_fd_sc_hd__fill_2
XFILLER_31_123 VGND VGND VPWR VPWR sky130_fd_sc_hd__fill_2
XFILLER_31_101 VGND VGND VPWR VPWR sky130_fd_sc_hd__fill_1
XFILLER_16_120 VGND VGND VPWR VPWR sky130_fd_sc_hd__decap_3
XANTENNA_mux_top_track_0.mux_l2_in_1__S mux_top_track_0.mux_l2_in_1_/S VGND VGND VPWR
+ VPWR sky130_fd_sc_hd__diode_2
XPHY_170 VGND VPWR sky130_fd_sc_hd__tapvpwrvgnd_1
XANTENNA_mux_left_track_7.mux_l1_in_0__S mux_left_track_7.mux_l1_in_2_/S VGND VGND
+ VPWR VPWR sky130_fd_sc_hd__diode_2
XPHY_192 VGND VPWR sky130_fd_sc_hd__tapvpwrvgnd_1
XPHY_181 VGND VPWR sky130_fd_sc_hd__tapvpwrvgnd_1
XANTENNA_mem_left_track_19.sky130_fd_sc_hd__dfxbp_1_1__CLK prog_clk VGND VGND VPWR
+ VPWR sky130_fd_sc_hd__diode_2
XFILLER_22_145 VGND VGND VPWR VPWR sky130_fd_sc_hd__fill_2
XFILLER_26_75 VGND VGND VPWR VPWR sky130_fd_sc_hd__fill_2
XFILLER_13_101 VGND VGND VPWR VPWR sky130_fd_sc_hd__fill_2
XFILLER_13_123 VGND VGND VPWR VPWR sky130_fd_sc_hd__decap_4
XFILLER_13_134 VGND VGND VPWR VPWR sky130_fd_sc_hd__fill_2
XFILLER_42_63 VGND VGND VPWR VPWR sky130_fd_sc_hd__decap_12
XFILLER_13_178 VGND VGND VPWR VPWR sky130_fd_sc_hd__fill_2
XFILLER_3_68 VGND VGND VPWR VPWR sky130_fd_sc_hd__fill_2
Xmux_bottom_track_3.mux_l1_in_0_ chany_top_in[13] chany_top_in[4] mux_bottom_track_3.mux_l1_in_0_/S
+ mux_bottom_track_3.mux_l1_in_0_/X VGND VGND VPWR VPWR sky130_fd_sc_hd__mux2_1
XFILLER_36_215 VGND VGND VPWR VPWR sky130_fd_sc_hd__decap_12
XFILLER_42_218 VGND VGND VPWR VPWR sky130_fd_sc_hd__decap_12
XANTENNA_mux_bottom_track_3.mux_l2_in_0__A0 mux_bottom_track_3.mux_l1_in_1_/X VGND
+ VGND VPWR VPWR sky130_fd_sc_hd__diode_2
XFILLER_12_88 VGND VGND VPWR VPWR sky130_fd_sc_hd__fill_2
XFILLER_37_41 VGND VGND VPWR VPWR sky130_fd_sc_hd__decap_3
XFILLER_18_215 VGND VGND VPWR VPWR sky130_fd_sc_hd__decap_12
XANTENNA_mem_top_track_0.sky130_fd_sc_hd__dfxbp_1_0__CLK prog_clk VGND VGND VPWR VPWR
+ sky130_fd_sc_hd__diode_2
XANTENNA_mux_left_track_1.sky130_fd_sc_hd__buf_4_0__A mux_left_track_1.mux_l3_in_0_/X
+ VGND VGND VPWR VPWR sky130_fd_sc_hd__diode_2
XFILLER_32_251 VGND VGND VPWR VPWR sky130_fd_sc_hd__decap_12
XANTENNA_mux_top_track_0.mux_l1_in_0__A1 top_left_grid_pin_34_ VGND VGND VPWR VPWR
+ sky130_fd_sc_hd__diode_2
X_061_ _061_/A chanx_left_out[12] VGND VGND VPWR VPWR sky130_fd_sc_hd__buf_2
XANTENNA_mux_bottom_track_1.mux_l2_in_2__A0 chanx_left_in[8] VGND VGND VPWR VPWR sky130_fd_sc_hd__diode_2
XFILLER_2_111 VGND VGND VPWR VPWR sky130_fd_sc_hd__fill_2
XFILLER_2_188 VGND VGND VPWR VPWR sky130_fd_sc_hd__fill_2
XFILLER_2_166 VGND VGND VPWR VPWR sky130_fd_sc_hd__fill_1
XFILLER_9_12 VGND VGND VPWR VPWR sky130_fd_sc_hd__fill_2
XFILLER_14_251 VGND VGND VPWR VPWR sky130_fd_sc_hd__decap_12
Xmux_left_track_9.sky130_fd_sc_hd__buf_4_0_ mux_left_track_9.mux_l3_in_0_/X _069_/A
+ VGND VGND VPWR VPWR sky130_fd_sc_hd__buf_1
XFILLER_20_276 VGND VGND VPWR VPWR sky130_fd_sc_hd__fill_1
XANTENNA_mem_bottom_track_9.sky130_fd_sc_hd__dfxbp_1_1__CLK prog_clk VGND VGND VPWR
+ VPWR sky130_fd_sc_hd__diode_2
Xmem_bottom_track_5.sky130_fd_sc_hd__dfxbp_1_2_ mux_bottom_track_5.mux_l2_in_3_/S
+ mux_bottom_track_5.mux_l3_in_1_/S mem_bottom_track_5.sky130_fd_sc_hd__dfxbp_1_2_/Q_N
+ prog_clk VGND VGND VPWR VPWR sky130_fd_sc_hd__dfxbp_1
XFILLER_18_65 VGND VGND VPWR VPWR sky130_fd_sc_hd__fill_2
X_113_ _113_/A chany_top_out[0] VGND VGND VPWR VPWR sky130_fd_sc_hd__buf_2
XFILLER_7_214 VGND VGND VPWR VPWR sky130_fd_sc_hd__fill_2
XFILLER_11_232 VGND VGND VPWR VPWR sky130_fd_sc_hd__decap_12
XFILLER_7_269 VGND VGND VPWR VPWR sky130_fd_sc_hd__decap_8
X_044_ _044_/HI _044_/LO VGND VGND VPWR VPWR sky130_fd_sc_hd__conb_1
XANTENNA_mux_top_track_24.mux_l1_in_0__S mux_top_track_24.mux_l1_in_0_/S VGND VGND
+ VPWR VPWR sky130_fd_sc_hd__diode_2
XANTENNA_mux_left_track_7.mux_l1_in_3__S mux_left_track_7.mux_l1_in_2_/S VGND VGND
+ VPWR VPWR sky130_fd_sc_hd__diode_2
XANTENNA_mux_left_track_5.mux_l3_in_0__S mux_left_track_5.mux_l3_in_0_/S VGND VGND
+ VPWR VPWR sky130_fd_sc_hd__diode_2
XANTENNA_mem_left_track_11.sky130_fd_sc_hd__dfxbp_1_2__D mux_left_track_11.mux_l2_in_0_/S
+ VGND VGND VPWR VPWR sky130_fd_sc_hd__diode_2
XFILLER_29_118 VGND VGND VPWR VPWR sky130_fd_sc_hd__fill_2
XFILLER_37_184 VGND VGND VPWR VPWR sky130_fd_sc_hd__fill_2
XANTENNA_mux_bottom_track_1.mux_l3_in_1__A0 mux_bottom_track_1.mux_l2_in_3_/X VGND
+ VGND VPWR VPWR sky130_fd_sc_hd__diode_2
XFILLER_4_239 VGND VGND VPWR VPWR sky130_fd_sc_hd__decap_12
XFILLER_20_88 VGND VGND VPWR VPWR sky130_fd_sc_hd__fill_2
XFILLER_29_53 VGND VGND VPWR VPWR sky130_fd_sc_hd__fill_2
X_027_ _027_/HI _027_/LO VGND VGND VPWR VPWR sky130_fd_sc_hd__conb_1
XFILLER_6_68 VGND VGND VPWR VPWR sky130_fd_sc_hd__fill_2
XFILLER_19_184 VGND VGND VPWR VPWR sky130_fd_sc_hd__fill_2
XFILLER_34_154 VGND VGND VPWR VPWR sky130_fd_sc_hd__fill_2
Xmux_left_track_7.mux_l1_in_3_ _032_/HI left_top_grid_pin_49_ mux_left_track_7.mux_l1_in_2_/S
+ mux_left_track_7.mux_l1_in_3_/X VGND VGND VPWR VPWR sky130_fd_sc_hd__mux2_1
XANTENNA_mux_top_track_8.mux_l4_in_0__S mux_top_track_8.mux_l4_in_0_/S VGND VGND VPWR
+ VPWR sky130_fd_sc_hd__diode_2
XFILLER_40_135 VGND VGND VPWR VPWR sky130_fd_sc_hd__decap_6
XFILLER_25_121 VGND VGND VPWR VPWR sky130_fd_sc_hd__fill_1
XFILLER_15_66 VGND VGND VPWR VPWR sky130_fd_sc_hd__fill_1
XANTENNA_mux_left_track_23.sky130_fd_sc_hd__buf_4_0__A mux_left_track_23.mux_l2_in_0_/X
+ VGND VGND VPWR VPWR sky130_fd_sc_hd__diode_2
XFILLER_0_253 VGND VGND VPWR VPWR sky130_fd_sc_hd__fill_2
XFILLER_0_231 VGND VGND VPWR VPWR sky130_fd_sc_hd__fill_2
XANTENNA_mux_bottom_track_3.mux_l1_in_1__A1 bottom_left_grid_pin_34_ VGND VGND VPWR
+ VPWR sky130_fd_sc_hd__diode_2
XPHY_193 VGND VPWR sky130_fd_sc_hd__tapvpwrvgnd_1
XPHY_160 VGND VPWR sky130_fd_sc_hd__tapvpwrvgnd_1
XFILLER_16_154 VGND VGND VPWR VPWR sky130_fd_sc_hd__decap_3
XFILLER_16_176 VGND VGND VPWR VPWR sky130_fd_sc_hd__fill_2
XPHY_171 VGND VPWR sky130_fd_sc_hd__tapvpwrvgnd_1
XPHY_182 VGND VPWR sky130_fd_sc_hd__tapvpwrvgnd_1
Xmux_left_track_15.mux_l3_in_0_ mux_left_track_15.mux_l2_in_1_/X mux_left_track_15.mux_l2_in_0_/X
+ mux_left_track_15.mux_l3_in_0_/S mux_left_track_15.mux_l3_in_0_/X VGND VGND VPWR
+ VPWR sky130_fd_sc_hd__mux2_1
XANTENNA_mux_bottom_track_1.mux_l4_in_0__A0 mux_bottom_track_1.mux_l3_in_1_/X VGND
+ VGND VPWR VPWR sky130_fd_sc_hd__diode_2
XFILLER_39_202 VGND VGND VPWR VPWR sky130_fd_sc_hd__fill_2
Xmux_left_track_25.sky130_fd_sc_hd__buf_4_0_ mux_left_track_25.mux_l2_in_0_/X _061_/A
+ VGND VGND VPWR VPWR sky130_fd_sc_hd__buf_1
Xmux_top_track_0.mux_l2_in_3_ _034_/HI chanx_left_in[14] mux_top_track_0.mux_l2_in_1_/S
+ mux_top_track_0.mux_l2_in_3_/X VGND VGND VPWR VPWR sky130_fd_sc_hd__mux2_1
XFILLER_22_102 VGND VGND VPWR VPWR sky130_fd_sc_hd__decap_12
XFILLER_22_168 VGND VGND VPWR VPWR sky130_fd_sc_hd__decap_3
XFILLER_13_157 VGND VGND VPWR VPWR sky130_fd_sc_hd__decap_4
XFILLER_42_75 VGND VGND VPWR VPWR sky130_fd_sc_hd__decap_12
XFILLER_36_227 VGND VGND VPWR VPWR sky130_fd_sc_hd__decap_12
XANTENNA_mux_left_track_21.mux_l1_in_0__S mux_left_track_21.mux_l1_in_0_/S VGND VGND
+ VPWR VPWR sky130_fd_sc_hd__diode_2
XANTENNA_mux_bottom_track_3.mux_l2_in_0__A1 mux_bottom_track_3.mux_l1_in_0_/X VGND
+ VGND VPWR VPWR sky130_fd_sc_hd__diode_2
XFILLER_10_149 VGND VGND VPWR VPWR sky130_fd_sc_hd__fill_2
XFILLER_12_23 VGND VGND VPWR VPWR sky130_fd_sc_hd__fill_2
XFILLER_12_45 VGND VGND VPWR VPWR sky130_fd_sc_hd__fill_2
XFILLER_37_75 VGND VGND VPWR VPWR sky130_fd_sc_hd__fill_2
XFILLER_37_53 VGND VGND VPWR VPWR sky130_fd_sc_hd__fill_2
XFILLER_33_208 VGND VGND VPWR VPWR sky130_fd_sc_hd__decap_12
XFILLER_18_227 VGND VGND VPWR VPWR sky130_fd_sc_hd__decap_12
Xmux_left_track_15.mux_l2_in_1_ _051_/HI left_top_grid_pin_45_ mux_left_track_15.mux_l2_in_1_/S
+ mux_left_track_15.mux_l2_in_1_/X VGND VGND VPWR VPWR sky130_fd_sc_hd__mux2_1
Xmux_left_track_19.sky130_fd_sc_hd__buf_4_0_ mux_left_track_19.mux_l2_in_0_/X _064_/A
+ VGND VGND VPWR VPWR sky130_fd_sc_hd__buf_1
XANTENNA_mux_top_track_24.mux_l1_in_3__S mux_top_track_24.mux_l1_in_0_/S VGND VGND
+ VPWR VPWR sky130_fd_sc_hd__diode_2
XFILLER_5_131 VGND VGND VPWR VPWR sky130_fd_sc_hd__fill_2
XFILLER_5_175 VGND VGND VPWR VPWR sky130_fd_sc_hd__fill_2
Xmux_left_track_7.mux_l3_in_0_ mux_left_track_7.mux_l2_in_1_/X mux_left_track_7.mux_l2_in_0_/X
+ mux_left_track_7.mux_l3_in_0_/S mux_left_track_7.mux_l3_in_0_/X VGND VGND VPWR VPWR
+ sky130_fd_sc_hd__mux2_1
XFILLER_32_263 VGND VGND VPWR VPWR sky130_fd_sc_hd__decap_12
XFILLER_23_11 VGND VGND VPWR VPWR sky130_fd_sc_hd__fill_2
X_060_ left_top_grid_pin_43_ chanx_left_out[13] VGND VGND VPWR VPWR sky130_fd_sc_hd__buf_2
XFILLER_3_3 VGND VGND VPWR VPWR sky130_fd_sc_hd__decap_3
XFILLER_2_145 VGND VGND VPWR VPWR sky130_fd_sc_hd__fill_2
XFILLER_2_134 VGND VGND VPWR VPWR sky130_fd_sc_hd__fill_2
XANTENNA_mux_bottom_track_1.mux_l2_in_2__A1 chanx_left_in[1] VGND VGND VPWR VPWR sky130_fd_sc_hd__diode_2
Xmux_top_track_0.mux_l4_in_0_ mux_top_track_0.mux_l3_in_1_/X mux_top_track_0.mux_l3_in_0_/X
+ mux_top_track_0.mux_l4_in_0_/S mux_top_track_0.mux_l4_in_0_/X VGND VGND VPWR VPWR
+ sky130_fd_sc_hd__mux2_1
XANTENNA_mux_top_track_16.mux_l2_in_0__S mux_top_track_16.mux_l2_in_0_/S VGND VGND
+ VPWR VPWR sky130_fd_sc_hd__diode_2
XFILLER_0_59 VGND VGND VPWR VPWR sky130_fd_sc_hd__decap_3
XFILLER_9_24 VGND VGND VPWR VPWR sky130_fd_sc_hd__fill_1
XFILLER_14_263 VGND VGND VPWR VPWR sky130_fd_sc_hd__decap_12
XFILLER_9_57 VGND VGND VPWR VPWR sky130_fd_sc_hd__fill_2
XANTENNA__061__A _061_/A VGND VGND VPWR VPWR sky130_fd_sc_hd__diode_2
Xmem_bottom_track_5.sky130_fd_sc_hd__dfxbp_1_1_ mux_bottom_track_5.mux_l1_in_6_/S
+ mux_bottom_track_5.mux_l2_in_3_/S mem_bottom_track_5.sky130_fd_sc_hd__dfxbp_1_1_/Q_N
+ prog_clk VGND VGND VPWR VPWR sky130_fd_sc_hd__dfxbp_1
XFILLER_18_22 VGND VGND VPWR VPWR sky130_fd_sc_hd__fill_2
XFILLER_34_32 VGND VGND VPWR VPWR sky130_fd_sc_hd__decap_3
XFILLER_18_88 VGND VGND VPWR VPWR sky130_fd_sc_hd__fill_2
X_112_ _112_/A chany_top_out[1] VGND VGND VPWR VPWR sky130_fd_sc_hd__buf_2
XFILLER_34_87 VGND VGND VPWR VPWR sky130_fd_sc_hd__decap_4
XFILLER_34_65 VGND VGND VPWR VPWR sky130_fd_sc_hd__fill_2
Xmux_left_track_7.mux_l2_in_1_ mux_left_track_7.mux_l1_in_3_/X mux_left_track_7.mux_l1_in_2_/X
+ mux_left_track_7.mux_l2_in_1_/S mux_left_track_7.mux_l2_in_1_/X VGND VGND VPWR VPWR
+ sky130_fd_sc_hd__mux2_1
X_043_ _043_/HI _043_/LO VGND VGND VPWR VPWR sky130_fd_sc_hd__conb_1
XFILLER_38_108 VGND VGND VPWR VPWR sky130_fd_sc_hd__decap_12
XANTENNA_mem_left_track_9.sky130_fd_sc_hd__dfxbp_1_1__CLK prog_clk VGND VGND VPWR
+ VPWR sky130_fd_sc_hd__diode_2
XANTENNA_mux_left_track_7.sky130_fd_sc_hd__buf_4_0__A mux_left_track_7.mux_l3_in_0_/X
+ VGND VGND VPWR VPWR sky130_fd_sc_hd__diode_2
XANTENNA_mem_top_track_2.sky130_fd_sc_hd__dfxbp_1_2__D mux_top_track_2.mux_l2_in_1_/S
+ VGND VGND VPWR VPWR sky130_fd_sc_hd__diode_2
XANTENNA_mem_top_track_32.sky130_fd_sc_hd__dfxbp_1_2__CLK prog_clk VGND VGND VPWR
+ VPWR sky130_fd_sc_hd__diode_2
XANTENNA_mux_bottom_track_1.mux_l3_in_1__A1 mux_bottom_track_1.mux_l2_in_2_/X VGND
+ VGND VPWR VPWR sky130_fd_sc_hd__diode_2
Xmux_top_track_0.mux_l3_in_1_ mux_top_track_0.mux_l2_in_3_/X mux_top_track_0.mux_l2_in_2_/X
+ mux_top_track_0.mux_l3_in_0_/S mux_top_track_0.mux_l3_in_1_/X VGND VGND VPWR VPWR
+ sky130_fd_sc_hd__mux2_1
XANTENNA__056__A chany_top_in[7] VGND VGND VPWR VPWR sky130_fd_sc_hd__diode_2
XFILLER_20_23 VGND VGND VPWR VPWR sky130_fd_sc_hd__fill_2
XFILLER_28_130 VGND VGND VPWR VPWR sky130_fd_sc_hd__fill_2
XANTENNA_mux_bottom_track_3.mux_l2_in_1__S mux_bottom_track_3.mux_l2_in_2_/S VGND
+ VGND VPWR VPWR sky130_fd_sc_hd__diode_2
XFILLER_20_6 VGND VGND VPWR VPWR sky130_fd_sc_hd__fill_2
XFILLER_19_152 VGND VGND VPWR VPWR sky130_fd_sc_hd__fill_2
Xmux_left_track_7.mux_l1_in_2_ left_top_grid_pin_47_ left_top_grid_pin_45_ mux_left_track_7.mux_l1_in_2_/S
+ mux_left_track_7.mux_l1_in_2_/X VGND VGND VPWR VPWR sky130_fd_sc_hd__mux2_1
XFILLER_40_158 VGND VGND VPWR VPWR sky130_fd_sc_hd__decap_8
XFILLER_15_12 VGND VGND VPWR VPWR sky130_fd_sc_hd__decap_4
XANTENNA_mem_left_track_21.sky130_fd_sc_hd__dfxbp_1_1__CLK prog_clk VGND VGND VPWR
+ VPWR sky130_fd_sc_hd__diode_2
XFILLER_31_66 VGND VGND VPWR VPWR sky130_fd_sc_hd__decap_3
XFILLER_31_22 VGND VGND VPWR VPWR sky130_fd_sc_hd__fill_1
XFILLER_31_11 VGND VGND VPWR VPWR sky130_fd_sc_hd__fill_2
XFILLER_0_243 VGND VGND VPWR VPWR sky130_fd_sc_hd__fill_2
XFILLER_31_114 VGND VGND VPWR VPWR sky130_fd_sc_hd__fill_2
XANTENNA_mux_left_track_13.mux_l2_in_0__S mux_left_track_13.mux_l2_in_1_/S VGND VGND
+ VPWR VPWR sky130_fd_sc_hd__diode_2
XPHY_194 VGND VPWR sky130_fd_sc_hd__tapvpwrvgnd_1
XANTENNA_mux_bottom_track_1.mux_l4_in_0__A1 mux_bottom_track_1.mux_l3_in_0_/X VGND
+ VGND VPWR VPWR sky130_fd_sc_hd__diode_2
XPHY_150 VGND VPWR sky130_fd_sc_hd__tapvpwrvgnd_1
XPHY_161 VGND VPWR sky130_fd_sc_hd__tapvpwrvgnd_1
XPHY_172 VGND VPWR sky130_fd_sc_hd__tapvpwrvgnd_1
XPHY_183 VGND VPWR sky130_fd_sc_hd__tapvpwrvgnd_1
Xmux_top_track_0.mux_l2_in_2_ chanx_left_in[7] chanx_left_in[0] mux_top_track_0.mux_l2_in_1_/S
+ mux_top_track_0.mux_l2_in_2_/X VGND VGND VPWR VPWR sky130_fd_sc_hd__mux2_1
XFILLER_39_225 VGND VGND VPWR VPWR sky130_fd_sc_hd__decap_12
XFILLER_39_214 VGND VGND VPWR VPWR sky130_fd_sc_hd__fill_1
XFILLER_22_125 VGND VGND VPWR VPWR sky130_fd_sc_hd__fill_1
XFILLER_22_114 VGND VGND VPWR VPWR sky130_fd_sc_hd__decap_8
XANTENNA_mem_bottom_track_3.sky130_fd_sc_hd__dfxbp_1_2__D mux_bottom_track_3.mux_l2_in_2_/S
+ VGND VGND VPWR VPWR sky130_fd_sc_hd__diode_2
XANTENNA_mux_left_track_19.mux_l1_in_1__S mux_left_track_19.mux_l1_in_0_/S VGND VGND
+ VPWR VPWR sky130_fd_sc_hd__diode_2
XFILLER_26_11 VGND VGND VPWR VPWR sky130_fd_sc_hd__fill_2
XFILLER_42_87 VGND VGND VPWR VPWR sky130_fd_sc_hd__decap_6
XFILLER_42_32 VGND VGND VPWR VPWR sky130_fd_sc_hd__fill_2
XFILLER_9_118 VGND VGND VPWR VPWR sky130_fd_sc_hd__fill_2
XFILLER_13_114 VGND VGND VPWR VPWR sky130_fd_sc_hd__fill_2
XFILLER_3_59 VGND VGND VPWR VPWR sky130_fd_sc_hd__fill_2
XFILLER_3_26 VGND VGND VPWR VPWR sky130_fd_sc_hd__fill_2
XFILLER_36_239 VGND VGND VPWR VPWR sky130_fd_sc_hd__decap_12
XANTENNA_mem_left_track_9.sky130_fd_sc_hd__dfxbp_1_2__D mux_left_track_9.mux_l2_in_1_/S
+ VGND VGND VPWR VPWR sky130_fd_sc_hd__diode_2
XFILLER_8_162 VGND VGND VPWR VPWR sky130_fd_sc_hd__fill_1
XANTENNA_mux_left_track_3.mux_l1_in_0__S mux_left_track_3.mux_l1_in_0_/S VGND VGND
+ VPWR VPWR sky130_fd_sc_hd__diode_2
XANTENNA_mux_top_track_0.sky130_fd_sc_hd__buf_4_0__A mux_top_track_0.mux_l4_in_0_/X
+ VGND VGND VPWR VPWR sky130_fd_sc_hd__diode_2
XANTENNA_mem_left_track_13.sky130_fd_sc_hd__dfxbp_1_2__CLK prog_clk VGND VGND VPWR
+ VPWR sky130_fd_sc_hd__diode_2
XFILLER_10_128 VGND VGND VPWR VPWR sky130_fd_sc_hd__fill_1
XANTENNA__064__A _064_/A VGND VGND VPWR VPWR sky130_fd_sc_hd__diode_2
XFILLER_18_206 VGND VGND VPWR VPWR sky130_fd_sc_hd__decap_8
XFILLER_41_220 VGND VGND VPWR VPWR sky130_fd_sc_hd__decap_12
Xmux_left_track_15.mux_l2_in_0_ chany_bottom_in[19] mux_left_track_15.mux_l1_in_0_/X
+ mux_left_track_15.mux_l2_in_1_/S mux_left_track_15.mux_l2_in_0_/X VGND VGND VPWR
+ VPWR sky130_fd_sc_hd__mux2_1
XFILLER_18_239 VGND VGND VPWR VPWR sky130_fd_sc_hd__decap_12
XFILLER_5_154 VGND VGND VPWR VPWR sky130_fd_sc_hd__fill_2
XANTENNA_mux_top_track_2.mux_l2_in_0__A0 top_left_grid_pin_39_ VGND VGND VPWR VPWR
+ sky130_fd_sc_hd__diode_2
XFILLER_4_91 VGND VGND VPWR VPWR sky130_fd_sc_hd__fill_1
XANTENNA__059__A chany_top_in[19] VGND VGND VPWR VPWR sky130_fd_sc_hd__diode_2
XFILLER_23_220 VGND VGND VPWR VPWR sky130_fd_sc_hd__decap_12
XFILLER_15_209 VGND VGND VPWR VPWR sky130_fd_sc_hd__decap_12
XFILLER_23_34 VGND VGND VPWR VPWR sky130_fd_sc_hd__decap_4
XFILLER_23_23 VGND VGND VPWR VPWR sky130_fd_sc_hd__fill_2
XFILLER_0_27 VGND VGND VPWR VPWR sky130_fd_sc_hd__fill_2
XFILLER_9_36 VGND VGND VPWR VPWR sky130_fd_sc_hd__fill_2
XANTENNA_mux_top_track_0.mux_l2_in_2__A0 chanx_left_in[7] VGND VGND VPWR VPWR sky130_fd_sc_hd__diode_2
Xmem_bottom_track_5.sky130_fd_sc_hd__dfxbp_1_0_ mux_bottom_track_3.mux_l4_in_0_/S
+ mux_bottom_track_5.mux_l1_in_6_/S mem_bottom_track_5.sky130_fd_sc_hd__dfxbp_1_0_/Q_N
+ prog_clk VGND VGND VPWR VPWR sky130_fd_sc_hd__dfxbp_1
XFILLER_34_44 VGND VGND VPWR VPWR sky130_fd_sc_hd__fill_2
XFILLER_34_11 VGND VGND VPWR VPWR sky130_fd_sc_hd__fill_1
X_111_ _111_/A chany_top_out[2] VGND VGND VPWR VPWR sky130_fd_sc_hd__buf_2
Xmux_left_track_7.mux_l2_in_0_ mux_left_track_7.mux_l1_in_1_/X mux_left_track_7.mux_l1_in_0_/X
+ mux_left_track_7.mux_l2_in_1_/S mux_left_track_7.mux_l2_in_0_/X VGND VGND VPWR VPWR
+ sky130_fd_sc_hd__mux2_1
XANTENNA_mux_bottom_track_5.mux_l1_in_2__A0 bottom_left_grid_pin_36_ VGND VGND VPWR
+ VPWR sky130_fd_sc_hd__diode_2
XFILLER_7_227 VGND VGND VPWR VPWR sky130_fd_sc_hd__decap_3
X_042_ _042_/HI _042_/LO VGND VGND VPWR VPWR sky130_fd_sc_hd__conb_1
XFILLER_11_245 VGND VGND VPWR VPWR sky130_fd_sc_hd__decap_12
XFILLER_29_109 VGND VGND VPWR VPWR sky130_fd_sc_hd__fill_2
XFILLER_37_175 VGND VGND VPWR VPWR sky130_fd_sc_hd__fill_2
XFILLER_37_164 VGND VGND VPWR VPWR sky130_fd_sc_hd__decap_4
Xmux_top_track_0.mux_l3_in_0_ mux_top_track_0.mux_l2_in_1_/X mux_top_track_0.mux_l2_in_0_/X
+ mux_top_track_0.mux_l3_in_0_/S mux_top_track_0.mux_l3_in_0_/X VGND VGND VPWR VPWR
+ sky130_fd_sc_hd__mux2_1
XFILLER_4_219 VGND VGND VPWR VPWR sky130_fd_sc_hd__fill_2
XANTENNA__072__A _072_/A VGND VGND VPWR VPWR sky130_fd_sc_hd__diode_2
XANTENNA_mem_bottom_track_3.sky130_fd_sc_hd__dfxbp_1_2__CLK prog_clk VGND VGND VPWR
+ VPWR sky130_fd_sc_hd__diode_2
XFILLER_20_46 VGND VGND VPWR VPWR sky130_fd_sc_hd__decap_3
XFILLER_29_88 VGND VGND VPWR VPWR sky130_fd_sc_hd__fill_1
XFILLER_6_26 VGND VGND VPWR VPWR sky130_fd_sc_hd__fill_1
XANTENNA_mux_top_track_32.mux_l1_in_1__S mux_top_track_32.mux_l1_in_0_/S VGND VGND
+ VPWR VPWR sky130_fd_sc_hd__diode_2
XANTENNA_mux_top_track_0.mux_l3_in_1__A0 mux_top_track_0.mux_l2_in_3_/X VGND VGND
+ VPWR VPWR sky130_fd_sc_hd__diode_2
XFILLER_19_120 VGND VGND VPWR VPWR sky130_fd_sc_hd__fill_2
XFILLER_34_145 VGND VGND VPWR VPWR sky130_fd_sc_hd__decap_8
XFILLER_34_123 VGND VGND VPWR VPWR sky130_fd_sc_hd__fill_2
XFILLER_34_112 VGND VGND VPWR VPWR sky130_fd_sc_hd__fill_2
XFILLER_19_142 VGND VGND VPWR VPWR sky130_fd_sc_hd__fill_2
XFILLER_19_175 VGND VGND VPWR VPWR sky130_fd_sc_hd__fill_2
XANTENNA_mux_left_track_3.mux_l1_in_3__S mux_left_track_3.mux_l1_in_0_/S VGND VGND
+ VPWR VPWR sky130_fd_sc_hd__diode_2
XANTENNA_mux_left_track_1.mux_l3_in_0__S mux_left_track_1.mux_l3_in_0_/S VGND VGND
+ VPWR VPWR sky130_fd_sc_hd__diode_2
Xmux_left_track_7.mux_l1_in_1_ left_top_grid_pin_43_ chany_bottom_in[6] mux_left_track_7.mux_l1_in_2_/S
+ mux_left_track_7.mux_l1_in_1_/X VGND VGND VPWR VPWR sky130_fd_sc_hd__mux2_1
XANTENNA_mux_bottom_track_5.mux_l2_in_1__A0 mux_bottom_track_5.mux_l1_in_3_/X VGND
+ VGND VPWR VPWR sky130_fd_sc_hd__diode_2
XFILLER_25_156 VGND VGND VPWR VPWR sky130_fd_sc_hd__decap_12
XFILLER_25_134 VGND VGND VPWR VPWR sky130_fd_sc_hd__fill_1
XANTENNA_mem_left_track_13.sky130_fd_sc_hd__dfxbp_1_0__D mux_left_track_11.mux_l3_in_0_/S
+ VGND VGND VPWR VPWR sky130_fd_sc_hd__diode_2
XANTENNA__067__A _067_/A VGND VGND VPWR VPWR sky130_fd_sc_hd__diode_2
XFILLER_15_57 VGND VGND VPWR VPWR sky130_fd_sc_hd__fill_2
XFILLER_0_200 VGND VGND VPWR VPWR sky130_fd_sc_hd__fill_1
XANTENNA_mux_bottom_track_5.sky130_fd_sc_hd__buf_4_0__A mux_bottom_track_5.mux_l4_in_0_/X
+ VGND VGND VPWR VPWR sky130_fd_sc_hd__diode_2
XANTENNA_mem_top_track_0.sky130_fd_sc_hd__dfxbp_1_3__CLK prog_clk VGND VGND VPWR VPWR
+ sky130_fd_sc_hd__diode_2
XFILLER_31_104 VGND VGND VPWR VPWR sky130_fd_sc_hd__fill_1
XFILLER_16_145 VGND VGND VPWR VPWR sky130_fd_sc_hd__fill_2
XPHY_195 VGND VPWR sky130_fd_sc_hd__tapvpwrvgnd_1
XPHY_184 VGND VPWR sky130_fd_sc_hd__tapvpwrvgnd_1
XPHY_140 VGND VPWR sky130_fd_sc_hd__tapvpwrvgnd_1
XPHY_151 VGND VPWR sky130_fd_sc_hd__tapvpwrvgnd_1
XPHY_162 VGND VPWR sky130_fd_sc_hd__tapvpwrvgnd_1
XPHY_173 VGND VPWR sky130_fd_sc_hd__tapvpwrvgnd_1
XANTENNA_mux_left_track_7.mux_l2_in_1__S mux_left_track_7.mux_l2_in_1_/S VGND VGND
+ VPWR VPWR sky130_fd_sc_hd__diode_2
Xmux_top_track_0.mux_l2_in_1_ chany_bottom_in[12] mux_top_track_0.mux_l1_in_2_/X mux_top_track_0.mux_l2_in_1_/S
+ mux_top_track_0.mux_l2_in_1_/X VGND VGND VPWR VPWR sky130_fd_sc_hd__mux2_1
XFILLER_39_237 VGND VGND VPWR VPWR sky130_fd_sc_hd__decap_6
XFILLER_11_3 VGND VGND VPWR VPWR sky130_fd_sc_hd__decap_3
XFILLER_30_181 VGND VGND VPWR VPWR sky130_fd_sc_hd__decap_12
XANTENNA_mux_left_track_1.mux_l1_in_1__A0 left_top_grid_pin_42_ VGND VGND VPWR VPWR
+ sky130_fd_sc_hd__diode_2
XANTENNA_mux_left_track_11.mux_l2_in_0__A0 chany_bottom_in[11] VGND VGND VPWR VPWR
+ sky130_fd_sc_hd__diode_2
XFILLER_38_270 VGND VGND VPWR VPWR sky130_fd_sc_hd__decap_4
XFILLER_26_89 VGND VGND VPWR VPWR sky130_fd_sc_hd__fill_1
XFILLER_26_45 VGND VGND VPWR VPWR sky130_fd_sc_hd__fill_2
XFILLER_26_23 VGND VGND VPWR VPWR sky130_fd_sc_hd__fill_2
XANTENNA_mux_bottom_track_3.mux_l2_in_3__A0 _044_/HI VGND VGND VPWR VPWR sky130_fd_sc_hd__diode_2
XFILLER_21_181 VGND VGND VPWR VPWR sky130_fd_sc_hd__fill_2
XANTENNA_mux_top_track_4.mux_l4_in_0__S mux_top_track_4.mux_l4_in_0_/S VGND VGND VPWR
+ VPWR sky130_fd_sc_hd__diode_2
XANTENNA_mux_top_track_0.mux_l4_in_0__A0 mux_top_track_0.mux_l3_in_1_/X VGND VGND
+ VPWR VPWR sky130_fd_sc_hd__diode_2
XFILLER_3_49 VGND VGND VPWR VPWR sky130_fd_sc_hd__decap_4