* NGSPICE file created from sb_2__0_.ext - technology: sky130A

* Black-box entry subcircuit for sky130_fd_sc_hd__dfxtp_1 abstract view
.subckt sky130_fd_sc_hd__dfxtp_1 D Q CLK VGND VNB VPB VPWR
.ends

* Black-box entry subcircuit for sky130_fd_sc_hd__decap_8 abstract view
.subckt sky130_fd_sc_hd__decap_8 VGND VNB VPB VPWR
.ends

* Black-box entry subcircuit for sky130_fd_sc_hd__buf_2 abstract view
.subckt sky130_fd_sc_hd__buf_2 A X VGND VNB VPB VPWR
.ends

* Black-box entry subcircuit for sky130_fd_sc_hd__decap_12 abstract view
.subckt sky130_fd_sc_hd__decap_12 VGND VNB VPB VPWR
.ends

* Black-box entry subcircuit for sky130_fd_sc_hd__decap_4 abstract view
.subckt sky130_fd_sc_hd__decap_4 VGND VNB VPB VPWR
.ends

* Black-box entry subcircuit for sky130_fd_sc_hd__conb_1 abstract view
.subckt sky130_fd_sc_hd__conb_1 HI LO VGND VNB VPB VPWR
.ends

* Black-box entry subcircuit for sky130_fd_sc_hd__clkbuf_1 abstract view
.subckt sky130_fd_sc_hd__clkbuf_1 A X VGND VNB VPB VPWR
.ends

* Black-box entry subcircuit for sky130_fd_sc_hd__tapvpwrvgnd_1 abstract view
.subckt sky130_fd_sc_hd__tapvpwrvgnd_1 VGND VPWR
.ends

* Black-box entry subcircuit for sky130_fd_sc_hd__decap_6 abstract view
.subckt sky130_fd_sc_hd__decap_6 VGND VNB VPB VPWR
.ends

* Black-box entry subcircuit for sky130_fd_sc_hd__decap_3 abstract view
.subckt sky130_fd_sc_hd__decap_3 VGND VNB VPB VPWR
.ends

* Black-box entry subcircuit for sky130_fd_sc_hd__buf_4 abstract view
.subckt sky130_fd_sc_hd__buf_4 A X VGND VNB VPB VPWR
.ends

* Black-box entry subcircuit for sky130_fd_sc_hd__mux2_1 abstract view
.subckt sky130_fd_sc_hd__mux2_1 A0 A1 S X VGND VNB VPB VPWR
.ends

* Black-box entry subcircuit for sky130_fd_sc_hd__fill_2 abstract view
.subckt sky130_fd_sc_hd__fill_2 VGND VNB VPB VPWR
.ends

* Black-box entry subcircuit for sky130_fd_sc_hd__fill_1 abstract view
.subckt sky130_fd_sc_hd__fill_1 VGND VNB VPB VPWR
.ends

* Black-box entry subcircuit for sky130_fd_sc_hd__clkbuf_16 abstract view
.subckt sky130_fd_sc_hd__clkbuf_16 A X VGND VNB VPB VPWR
.ends

* Black-box entry subcircuit for sky130_fd_sc_hd__diode_2 abstract view
.subckt sky130_fd_sc_hd__diode_2 DIODE VGND VNB VPB VPWR
.ends

.subckt sb_2__0_ ccff_head ccff_tail chanx_left_in[0] chanx_left_in[10] chanx_left_in[11]
+ chanx_left_in[12] chanx_left_in[13] chanx_left_in[14] chanx_left_in[15] chanx_left_in[16]
+ chanx_left_in[17] chanx_left_in[18] chanx_left_in[19] chanx_left_in[1] chanx_left_in[2]
+ chanx_left_in[3] chanx_left_in[4] chanx_left_in[5] chanx_left_in[6] chanx_left_in[7]
+ chanx_left_in[8] chanx_left_in[9] chanx_left_out[0] chanx_left_out[10] chanx_left_out[11]
+ chanx_left_out[12] chanx_left_out[13] chanx_left_out[14] chanx_left_out[15] chanx_left_out[16]
+ chanx_left_out[17] chanx_left_out[18] chanx_left_out[19] chanx_left_out[1] chanx_left_out[2]
+ chanx_left_out[3] chanx_left_out[4] chanx_left_out[5] chanx_left_out[6] chanx_left_out[7]
+ chanx_left_out[8] chanx_left_out[9] chany_top_in[0] chany_top_in[10] chany_top_in[11]
+ chany_top_in[12] chany_top_in[13] chany_top_in[14] chany_top_in[15] chany_top_in[16]
+ chany_top_in[17] chany_top_in[18] chany_top_in[19] chany_top_in[1] chany_top_in[2]
+ chany_top_in[3] chany_top_in[4] chany_top_in[5] chany_top_in[6] chany_top_in[7]
+ chany_top_in[8] chany_top_in[9] chany_top_out[0] chany_top_out[10] chany_top_out[11]
+ chany_top_out[12] chany_top_out[13] chany_top_out[14] chany_top_out[15] chany_top_out[16]
+ chany_top_out[17] chany_top_out[18] chany_top_out[19] chany_top_out[1] chany_top_out[2]
+ chany_top_out[3] chany_top_out[4] chany_top_out[5] chany_top_out[6] chany_top_out[7]
+ chany_top_out[8] chany_top_out[9] left_bottom_grid_pin_11_ left_bottom_grid_pin_1_
+ left_bottom_grid_pin_3_ left_bottom_grid_pin_5_ left_bottom_grid_pin_7_ left_bottom_grid_pin_9_
+ prog_clk top_left_grid_pin_42_ top_left_grid_pin_43_ top_left_grid_pin_44_ top_left_grid_pin_45_
+ top_left_grid_pin_46_ top_left_grid_pin_47_ top_left_grid_pin_48_ top_left_grid_pin_49_
+ top_right_grid_pin_1_ VPWR VGND
Xmem_left_track_17.sky130_fd_sc_hd__dfxtp_1_0_ mux_left_track_15.mux_l2_in_0_/S mux_left_track_17.mux_l1_in_0_/S
+ clkbuf_3_7_0_prog_clk/X VGND VGND VPWR VPWR sky130_fd_sc_hd__dfxtp_1
XFILLER_26_41 VGND VGND VPWR VPWR sky130_fd_sc_hd__decap_8
X_83_ chanx_left_in[4] chany_top_out[16] VGND VGND VPWR VPWR sky130_fd_sc_hd__buf_2
XFILLER_9_104 VGND VGND VPWR VPWR sky130_fd_sc_hd__decap_12
XFILLER_10_169 VGND VGND VPWR VPWR sky130_fd_sc_hd__decap_12
XFILLER_12_32 VGND VGND VPWR VPWR sky130_fd_sc_hd__decap_4
X_66_ _66_/A chanx_left_out[13] VGND VGND VPWR VPWR sky130_fd_sc_hd__buf_2
XFILLER_5_184 VGND VGND VPWR VPWR sky130_fd_sc_hd__decap_12
XFILLER_2_154 VGND VGND VPWR VPWR sky130_fd_sc_hd__decap_12
XFILLER_9_22 VGND VGND VPWR VPWR sky130_fd_sc_hd__decap_8
X_49_ _49_/HI _49_/LO VGND VGND VPWR VPWR sky130_fd_sc_hd__conb_1
Xclkbuf_3_4_0_prog_clk clkbuf_3_5_0_prog_clk/A clkbuf_3_4_0_prog_clk/X VGND VGND VPWR
+ VPWR sky130_fd_sc_hd__clkbuf_1
XFILLER_28_183 VGND VGND VPWR VPWR sky130_fd_sc_hd__decap_12
XFILLER_20_32 VGND VGND VPWR VPWR sky130_fd_sc_hd__decap_8
XFILLER_6_23 VGND VGND VPWR VPWR sky130_fd_sc_hd__decap_8
XFILLER_31_53 VGND VGND VPWR VPWR sky130_fd_sc_hd__decap_8
XFILLER_25_164 VGND VGND VPWR VPWR sky130_fd_sc_hd__decap_12
XFILLER_25_153 VGND VGND VPWR VPWR sky130_fd_sc_hd__decap_8
XFILLER_1_208 VGND VGND VPWR VPWR sky130_fd_sc_hd__decap_12
XPHY_192 VGND VPWR sky130_fd_sc_hd__tapvpwrvgnd_1
XFILLER_31_123 VGND VGND VPWR VPWR sky130_fd_sc_hd__decap_8
XPHY_181 VGND VPWR sky130_fd_sc_hd__tapvpwrvgnd_1
XPHY_170 VGND VPWR sky130_fd_sc_hd__tapvpwrvgnd_1
XFILLER_26_53 VGND VGND VPWR VPWR sky130_fd_sc_hd__decap_8
XFILLER_13_123 VGND VGND VPWR VPWR sky130_fd_sc_hd__decap_8
XFILLER_9_116 VGND VGND VPWR VPWR sky130_fd_sc_hd__decap_6
X_82_ chanx_left_in[3] chany_top_out[17] VGND VGND VPWR VPWR sky130_fd_sc_hd__buf_2
XFILLER_33_218 VGND VGND VPWR VPWR sky130_fd_sc_hd__decap_4
XFILLER_18_215 VGND VGND VPWR VPWR sky130_fd_sc_hd__decap_8
XFILLER_12_11 VGND VGND VPWR VPWR sky130_fd_sc_hd__decap_8
XFILLER_12_22 VGND VGND VPWR VPWR sky130_fd_sc_hd__decap_8
X_65_ _65_/A chanx_left_out[14] VGND VGND VPWR VPWR sky130_fd_sc_hd__buf_2
XFILLER_5_196 VGND VGND VPWR VPWR sky130_fd_sc_hd__decap_3
XFILLER_23_65 VGND VGND VPWR VPWR sky130_fd_sc_hd__decap_8
XFILLER_2_166 VGND VGND VPWR VPWR sky130_fd_sc_hd__decap_12
XFILLER_9_78 VGND VGND VPWR VPWR sky130_fd_sc_hd__decap_12
X_48_ _48_/HI _48_/LO VGND VGND VPWR VPWR sky130_fd_sc_hd__conb_1
Xmux_left_track_9.sky130_fd_sc_hd__buf_4_0_ mux_left_track_9.mux_l2_in_0_/X _75_/A
+ VGND VGND VPWR VPWR sky130_fd_sc_hd__buf_4
Xmux_left_track_31.sky130_fd_sc_hd__buf_4_0_ mux_left_track_31.mux_l2_in_0_/X _64_/A
+ VGND VGND VPWR VPWR sky130_fd_sc_hd__buf_4
Xmux_top_track_10.mux_l2_in_0_ _34_/HI mux_top_track_10.mux_l1_in_0_/X mux_top_track_10.mux_l2_in_0_/S
+ mux_top_track_10.mux_l2_in_0_/X VGND VGND VPWR VPWR sky130_fd_sc_hd__mux2_1
XFILLER_28_195 VGND VGND VPWR VPWR sky130_fd_sc_hd__decap_12
XFILLER_28_151 VGND VGND VPWR VPWR sky130_fd_sc_hd__fill_2
Xmem_left_track_35.sky130_fd_sc_hd__dfxtp_1_1_ mux_left_track_35.mux_l1_in_0_/S ccff_tail
+ clkbuf_3_3_0_prog_clk/X VGND VGND VPWR VPWR sky130_fd_sc_hd__dfxtp_1
XFILLER_19_184 VGND VGND VPWR VPWR sky130_fd_sc_hd__decap_12
XFILLER_19_151 VGND VGND VPWR VPWR sky130_fd_sc_hd__decap_8
XFILLER_25_176 VGND VGND VPWR VPWR sky130_fd_sc_hd__decap_6
XFILLER_15_33 VGND VGND VPWR VPWR sky130_fd_sc_hd__decap_8
XFILLER_15_22 VGND VGND VPWR VPWR sky130_fd_sc_hd__fill_2
XPHY_193 VGND VPWR sky130_fd_sc_hd__tapvpwrvgnd_1
XPHY_182 VGND VPWR sky130_fd_sc_hd__tapvpwrvgnd_1
XFILLER_31_43 VGND VGND VPWR VPWR sky130_fd_sc_hd__fill_1
XPHY_171 VGND VPWR sky130_fd_sc_hd__tapvpwrvgnd_1
XPHY_160 VGND VPWR sky130_fd_sc_hd__tapvpwrvgnd_1
XFILLER_16_154 VGND VGND VPWR VPWR sky130_fd_sc_hd__decap_8
Xmux_left_track_25.sky130_fd_sc_hd__buf_4_0_ mux_left_track_25.mux_l2_in_0_/X _67_/A
+ VGND VGND VPWR VPWR sky130_fd_sc_hd__buf_4
X_81_ chanx_left_in[2] chany_top_out[18] VGND VGND VPWR VPWR sky130_fd_sc_hd__buf_2
XFILLER_8_150 VGND VGND VPWR VPWR sky130_fd_sc_hd__decap_3
XFILLER_10_116 VGND VGND VPWR VPWR sky130_fd_sc_hd__decap_8
X_64_ _64_/A chanx_left_out[15] VGND VGND VPWR VPWR sky130_fd_sc_hd__buf_2
Xmux_left_track_19.sky130_fd_sc_hd__buf_4_0_ mux_left_track_19.mux_l2_in_0_/X _70_/A
+ VGND VGND VPWR VPWR sky130_fd_sc_hd__buf_4
Xmux_left_track_7.mux_l3_in_0_ mux_left_track_7.mux_l2_in_1_/X mux_left_track_7.mux_l2_in_0_/X
+ mux_left_track_7.mux_l3_in_0_/S mux_left_track_7.mux_l3_in_0_/X VGND VGND VPWR VPWR
+ sky130_fd_sc_hd__mux2_1
XFILLER_5_120 VGND VGND VPWR VPWR sky130_fd_sc_hd__fill_2
XFILLER_24_208 VGND VGND VPWR VPWR sky130_fd_sc_hd__decap_6
XFILLER_23_11 VGND VGND VPWR VPWR sky130_fd_sc_hd__decap_8
Xmem_top_track_10.sky130_fd_sc_hd__dfxtp_1_1_ mux_top_track_10.mux_l1_in_0_/S mux_top_track_10.mux_l2_in_0_/S
+ clkbuf_3_1_0_prog_clk/X VGND VGND VPWR VPWR sky130_fd_sc_hd__dfxtp_1
XFILLER_3_3 VGND VGND VPWR VPWR sky130_fd_sc_hd__decap_12
XFILLER_2_178 VGND VGND VPWR VPWR sky130_fd_sc_hd__decap_12
XFILLER_0_15 VGND VGND VPWR VPWR sky130_fd_sc_hd__decap_12
X_47_ _47_/HI _47_/LO VGND VGND VPWR VPWR sky130_fd_sc_hd__conb_1
XFILLER_9_46 VGND VGND VPWR VPWR sky130_fd_sc_hd__decap_12
Xmux_left_track_7.mux_l2_in_1_ _31_/HI left_bottom_grid_pin_11_ mux_left_track_7.mux_l2_in_1_/S
+ mux_left_track_7.mux_l2_in_1_/X VGND VGND VPWR VPWR sky130_fd_sc_hd__mux2_1
XFILLER_18_77 VGND VGND VPWR VPWR sky130_fd_sc_hd__fill_1
XFILLER_18_22 VGND VGND VPWR VPWR sky130_fd_sc_hd__decap_8
XFILLER_7_204 VGND VGND VPWR VPWR sky130_fd_sc_hd__decap_12
XFILLER_11_222 VGND VGND VPWR VPWR sky130_fd_sc_hd__fill_1
XFILLER_20_56 VGND VGND VPWR VPWR sky130_fd_sc_hd__decap_8
XFILLER_20_23 VGND VGND VPWR VPWR sky130_fd_sc_hd__decap_8
XFILLER_20_6 VGND VGND VPWR VPWR sky130_fd_sc_hd__decap_8
Xmem_left_track_35.sky130_fd_sc_hd__dfxtp_1_0_ mux_left_track_33.mux_l2_in_0_/S mux_left_track_35.mux_l1_in_0_/S
+ clkbuf_3_2_0_prog_clk/X VGND VGND VPWR VPWR sky130_fd_sc_hd__dfxtp_1
XFILLER_19_196 VGND VGND VPWR VPWR sky130_fd_sc_hd__decap_12
XFILLER_31_88 VGND VGND VPWR VPWR sky130_fd_sc_hd__decap_8
XFILLER_31_11 VGND VGND VPWR VPWR sky130_fd_sc_hd__decap_8
XFILLER_15_89 VGND VGND VPWR VPWR sky130_fd_sc_hd__decap_8
XFILLER_15_78 VGND VGND VPWR VPWR sky130_fd_sc_hd__decap_8
XPHY_183 VGND VPWR sky130_fd_sc_hd__tapvpwrvgnd_1
XFILLER_31_147 VGND VGND VPWR VPWR sky130_fd_sc_hd__decap_8
XPHY_172 VGND VPWR sky130_fd_sc_hd__tapvpwrvgnd_1
XPHY_161 VGND VPWR sky130_fd_sc_hd__tapvpwrvgnd_1
Xclkbuf_2_1_0_prog_clk clkbuf_2_1_0_prog_clk/A clkbuf_3_3_0_prog_clk/A VGND VGND VPWR
+ VPWR sky130_fd_sc_hd__clkbuf_1
XPHY_150 VGND VPWR sky130_fd_sc_hd__tapvpwrvgnd_1
XFILLER_26_99 VGND VGND VPWR VPWR sky130_fd_sc_hd__decap_8
XFILLER_21_180 VGND VGND VPWR VPWR sky130_fd_sc_hd__decap_3
Xmux_top_track_10.mux_l1_in_0_ chanx_left_in[15] top_left_grid_pin_43_ mux_top_track_10.mux_l1_in_0_/S
+ mux_top_track_10.mux_l1_in_0_/X VGND VGND VPWR VPWR sky130_fd_sc_hd__mux2_1
XFILLER_13_147 VGND VGND VPWR VPWR sky130_fd_sc_hd__decap_12
XFILLER_13_114 VGND VGND VPWR VPWR sky130_fd_sc_hd__decap_8
Xmux_top_track_22.mux_l2_in_0_ _41_/HI mux_top_track_22.mux_l1_in_0_/X mux_top_track_22.mux_l2_in_0_/S
+ mux_top_track_22.mux_l2_in_0_/X VGND VGND VPWR VPWR sky130_fd_sc_hd__mux2_1
XFILLER_3_59 VGND VGND VPWR VPWR sky130_fd_sc_hd__fill_2
XFILLER_3_15 VGND VGND VPWR VPWR sky130_fd_sc_hd__decap_12
X_80_ chanx_left_in[1] chany_top_out[19] VGND VGND VPWR VPWR sky130_fd_sc_hd__buf_2
XFILLER_12_46 VGND VGND VPWR VPWR sky130_fd_sc_hd__decap_8
XFILLER_12_57 VGND VGND VPWR VPWR sky130_fd_sc_hd__decap_6
Xmux_left_track_15.mux_l2_in_0_ _50_/HI mux_left_track_15.mux_l1_in_0_/X mux_left_track_15.mux_l2_in_0_/S
+ mux_left_track_15.mux_l2_in_0_/X VGND VGND VPWR VPWR sky130_fd_sc_hd__mux2_1
X_63_ _63_/A chanx_left_out[16] VGND VGND VPWR VPWR sky130_fd_sc_hd__buf_2
XFILLER_23_220 VGND VGND VPWR VPWR sky130_fd_sc_hd__decap_3
XFILLER_23_89 VGND VGND VPWR VPWR sky130_fd_sc_hd__decap_12
Xmem_top_track_10.sky130_fd_sc_hd__dfxtp_1_0_ mux_top_track_8.mux_l2_in_0_/S mux_top_track_10.mux_l1_in_0_/S
+ clkbuf_3_1_0_prog_clk/X VGND VGND VPWR VPWR sky130_fd_sc_hd__dfxtp_1
XFILLER_0_27 VGND VGND VPWR VPWR sky130_fd_sc_hd__decap_4
XFILLER_29_3 VGND VGND VPWR VPWR sky130_fd_sc_hd__decap_4
X_46_ _46_/HI _46_/LO VGND VGND VPWR VPWR sky130_fd_sc_hd__conb_1
XFILLER_9_58 VGND VGND VPWR VPWR sky130_fd_sc_hd__decap_3
Xmux_left_track_7.mux_l2_in_0_ left_bottom_grid_pin_7_ mux_left_track_7.mux_l1_in_0_/X
+ mux_left_track_7.mux_l2_in_1_/S mux_left_track_7.mux_l2_in_0_/X VGND VGND VPWR VPWR
+ sky130_fd_sc_hd__mux2_1
XFILLER_7_216 VGND VGND VPWR VPWR sky130_fd_sc_hd__decap_6
Xmux_top_track_0.mux_l3_in_0_ mux_top_track_0.mux_l2_in_1_/X mux_top_track_0.mux_l2_in_0_/X
+ mux_top_track_0.mux_l3_in_0_/S mux_top_track_0.mux_l3_in_0_/X VGND VGND VPWR VPWR
+ sky130_fd_sc_hd__mux2_1
XFILLER_29_11 VGND VGND VPWR VPWR sky130_fd_sc_hd__decap_6
Xclkbuf_3_3_0_prog_clk clkbuf_3_3_0_prog_clk/A clkbuf_3_3_0_prog_clk/X VGND VGND VPWR
+ VPWR sky130_fd_sc_hd__clkbuf_1
XFILLER_19_120 VGND VGND VPWR VPWR sky130_fd_sc_hd__fill_2
Xmem_top_track_16.sky130_fd_sc_hd__dfxtp_1_1_ mux_top_track_16.mux_l1_in_0_/S mux_top_track_16.mux_l2_in_0_/S
+ clkbuf_3_5_0_prog_clk/X VGND VGND VPWR VPWR sky130_fd_sc_hd__dfxtp_1
XFILLER_0_222 VGND VGND VPWR VPWR sky130_fd_sc_hd__fill_1
XFILLER_0_211 VGND VGND VPWR VPWR sky130_fd_sc_hd__decap_6
XPHY_184 VGND VPWR sky130_fd_sc_hd__tapvpwrvgnd_1
XPHY_173 VGND VPWR sky130_fd_sc_hd__tapvpwrvgnd_1
XPHY_162 VGND VPWR sky130_fd_sc_hd__tapvpwrvgnd_1
XPHY_151 VGND VPWR sky130_fd_sc_hd__tapvpwrvgnd_1
XPHY_140 VGND VPWR sky130_fd_sc_hd__tapvpwrvgnd_1
Xmux_top_track_0.mux_l2_in_1_ _33_/HI mux_top_track_0.mux_l1_in_2_/X mux_top_track_0.mux_l2_in_1_/S
+ mux_top_track_0.mux_l2_in_1_/X VGND VGND VPWR VPWR sky130_fd_sc_hd__mux2_1
XFILLER_16_145 VGND VGND VPWR VPWR sky130_fd_sc_hd__decap_8
XFILLER_16_134 VGND VGND VPWR VPWR sky130_fd_sc_hd__decap_8
XFILLER_11_3 VGND VGND VPWR VPWR sky130_fd_sc_hd__decap_6
XFILLER_30_170 VGND VGND VPWR VPWR sky130_fd_sc_hd__decap_8
XFILLER_3_27 VGND VGND VPWR VPWR sky130_fd_sc_hd__decap_12
Xmux_top_track_22.sky130_fd_sc_hd__buf_4_0_ mux_top_track_22.mux_l2_in_0_/X _88_/A
+ VGND VGND VPWR VPWR sky130_fd_sc_hd__buf_4
XFILLER_8_130 VGND VGND VPWR VPWR sky130_fd_sc_hd__decap_12
XFILLER_12_36 VGND VGND VPWR VPWR sky130_fd_sc_hd__fill_1
Xmux_top_track_0.mux_l1_in_2_ chanx_left_in[0] top_right_grid_pin_1_ mux_top_track_0.mux_l1_in_1_/S
+ mux_top_track_0.mux_l1_in_2_/X VGND VGND VPWR VPWR sky130_fd_sc_hd__mux2_1
X_62_ _62_/A chanx_left_out[17] VGND VGND VPWR VPWR sky130_fd_sc_hd__buf_2
Xmux_top_track_16.sky130_fd_sc_hd__buf_4_0_ mux_top_track_16.mux_l2_in_0_/X _91_/A
+ VGND VGND VPWR VPWR sky130_fd_sc_hd__buf_4
Xmux_top_track_22.mux_l1_in_0_ chanx_left_in[9] top_left_grid_pin_49_ mux_top_track_22.mux_l1_in_0_/S
+ mux_top_track_22.mux_l1_in_0_/X VGND VGND VPWR VPWR sky130_fd_sc_hd__mux2_1
Xmux_left_track_15.mux_l1_in_0_ left_bottom_grid_pin_7_ chany_top_in[13] mux_left_track_15.mux_l1_in_0_/S
+ mux_left_track_15.mux_l1_in_0_/X VGND VGND VPWR VPWR sky130_fd_sc_hd__mux2_1
X_45_ _45_/HI _45_/LO VGND VGND VPWR VPWR sky130_fd_sc_hd__conb_1
Xmux_left_track_27.mux_l2_in_0_ _54_/HI mux_left_track_27.mux_l1_in_0_/X mux_left_track_27.mux_l2_in_0_/S
+ mux_left_track_27.mux_l2_in_0_/X VGND VGND VPWR VPWR sky130_fd_sc_hd__mux2_1
XFILLER_11_202 VGND VGND VPWR VPWR sky130_fd_sc_hd__decap_12
XFILLER_28_143 VGND VGND VPWR VPWR sky130_fd_sc_hd__decap_8
Xmem_top_track_16.sky130_fd_sc_hd__dfxtp_1_0_ mux_top_track_14.mux_l2_in_0_/S mux_top_track_16.mux_l1_in_0_/S
+ clkbuf_3_5_0_prog_clk/X VGND VGND VPWR VPWR sky130_fd_sc_hd__dfxtp_1
XFILLER_10_91 VGND VGND VPWR VPWR sky130_fd_sc_hd__fill_1
XFILLER_31_35 VGND VGND VPWR VPWR sky130_fd_sc_hd__decap_8
Xmux_left_track_7.mux_l1_in_0_ left_bottom_grid_pin_3_ chany_top_in[17] mux_left_track_7.mux_l1_in_0_/S
+ mux_left_track_7.mux_l1_in_0_/X VGND VGND VPWR VPWR sky130_fd_sc_hd__mux2_1
XFILLER_15_14 VGND VGND VPWR VPWR sky130_fd_sc_hd__decap_8
Xmux_top_track_0.sky130_fd_sc_hd__buf_4_0_ mux_top_track_0.mux_l3_in_0_/X _99_/A VGND
+ VGND VPWR VPWR sky130_fd_sc_hd__buf_4
XPHY_185 VGND VPWR sky130_fd_sc_hd__tapvpwrvgnd_1
XPHY_174 VGND VPWR sky130_fd_sc_hd__tapvpwrvgnd_1
XPHY_163 VGND VPWR sky130_fd_sc_hd__tapvpwrvgnd_1
XPHY_152 VGND VPWR sky130_fd_sc_hd__tapvpwrvgnd_1
XPHY_141 VGND VPWR sky130_fd_sc_hd__tapvpwrvgnd_1
XPHY_130 VGND VPWR sky130_fd_sc_hd__tapvpwrvgnd_1
XFILLER_16_179 VGND VGND VPWR VPWR sky130_fd_sc_hd__decap_8
Xmux_top_track_0.mux_l2_in_0_ mux_top_track_0.mux_l1_in_1_/X mux_top_track_0.mux_l1_in_0_/X
+ mux_top_track_0.mux_l2_in_1_/S mux_top_track_0.mux_l2_in_0_/X VGND VGND VPWR VPWR
+ sky130_fd_sc_hd__mux2_1
XFILLER_30_182 VGND VGND VPWR VPWR sky130_fd_sc_hd__decap_12
XFILLER_3_39 VGND VGND VPWR VPWR sky130_fd_sc_hd__decap_12
XFILLER_27_208 VGND VGND VPWR VPWR sky130_fd_sc_hd__decap_12
XFILLER_16_90 VGND VGND VPWR VPWR sky130_fd_sc_hd__fill_2
XFILLER_12_160 VGND VGND VPWR VPWR sky130_fd_sc_hd__decap_8
XFILLER_8_142 VGND VGND VPWR VPWR sky130_fd_sc_hd__decap_8
XFILLER_18_208 VGND VGND VPWR VPWR sky130_fd_sc_hd__decap_6
Xmux_top_track_0.mux_l1_in_1_ top_left_grid_pin_48_ top_left_grid_pin_46_ mux_top_track_0.mux_l1_in_1_/S
+ mux_top_track_0.mux_l1_in_1_/X VGND VGND VPWR VPWR sky130_fd_sc_hd__mux2_1
XFILLER_5_9 VGND VGND VPWR VPWR sky130_fd_sc_hd__fill_1
X_61_ chany_top_in[2] chanx_left_out[18] VGND VGND VPWR VPWR sky130_fd_sc_hd__buf_2
XFILLER_5_123 VGND VGND VPWR VPWR sky130_fd_sc_hd__decap_12
XFILLER_23_58 VGND VGND VPWR VPWR sky130_fd_sc_hd__decap_3
XFILLER_23_47 VGND VGND VPWR VPWR sky130_fd_sc_hd__decap_8
XFILLER_4_93 VGND VGND VPWR VPWR sky130_fd_sc_hd__decap_12
X_44_ _44_/HI _44_/LO VGND VGND VPWR VPWR sky130_fd_sc_hd__conb_1
XFILLER_18_69 VGND VGND VPWR VPWR sky130_fd_sc_hd__decap_8
XFILLER_1_3 VGND VGND VPWR VPWR sky130_fd_sc_hd__decap_12
XFILLER_11_214 VGND VGND VPWR VPWR sky130_fd_sc_hd__decap_8
XFILLER_29_79 VGND VGND VPWR VPWR sky130_fd_sc_hd__fill_2
XFILLER_29_46 VGND VGND VPWR VPWR sky130_fd_sc_hd__decap_12
XFILLER_33_191 VGND VGND VPWR VPWR sky130_fd_sc_hd__decap_12
Xmux_left_track_27.mux_l1_in_0_ left_bottom_grid_pin_3_ chany_top_in[7] mux_left_track_27.mux_l1_in_0_/S
+ mux_left_track_27.mux_l1_in_0_/X VGND VGND VPWR VPWR sky130_fd_sc_hd__mux2_1
XFILLER_25_114 VGND VGND VPWR VPWR sky130_fd_sc_hd__decap_8
XPHY_186 VGND VPWR sky130_fd_sc_hd__tapvpwrvgnd_1
XFILLER_31_106 VGND VGND VPWR VPWR sky130_fd_sc_hd__decap_12
XPHY_175 VGND VPWR sky130_fd_sc_hd__tapvpwrvgnd_1
XPHY_164 VGND VPWR sky130_fd_sc_hd__tapvpwrvgnd_1
XPHY_153 VGND VPWR sky130_fd_sc_hd__tapvpwrvgnd_1
XPHY_142 VGND VPWR sky130_fd_sc_hd__tapvpwrvgnd_1
XPHY_131 VGND VPWR sky130_fd_sc_hd__tapvpwrvgnd_1
XPHY_120 VGND VPWR sky130_fd_sc_hd__tapvpwrvgnd_1
XFILLER_30_194 VGND VGND VPWR VPWR sky130_fd_sc_hd__decap_12
XPHY_0 VGND VGND VPWR VPWR sky130_fd_sc_hd__decap_3
XFILLER_8_154 VGND VGND VPWR VPWR sky130_fd_sc_hd__decap_12
XFILLER_8_198 VGND VGND VPWR VPWR sky130_fd_sc_hd__decap_12
X_60_ chany_top_in[1] chanx_left_out[19] VGND VGND VPWR VPWR sky130_fd_sc_hd__buf_2
XFILLER_17_220 VGND VGND VPWR VPWR sky130_fd_sc_hd__decap_3
Xclkbuf_2_0_0_prog_clk clkbuf_2_1_0_prog_clk/A clkbuf_2_0_0_prog_clk/X VGND VGND VPWR
+ VPWR sky130_fd_sc_hd__clkbuf_1
Xmux_top_track_0.mux_l1_in_0_ top_left_grid_pin_44_ top_left_grid_pin_42_ mux_top_track_0.mux_l1_in_1_/S
+ mux_top_track_0.mux_l1_in_0_/X VGND VGND VPWR VPWR sky130_fd_sc_hd__mux2_1
XFILLER_5_135 VGND VGND VPWR VPWR sky130_fd_sc_hd__decap_12
XFILLER_4_50 VGND VGND VPWR VPWR sky130_fd_sc_hd__decap_12
XFILLER_4_190 VGND VGND VPWR VPWR sky130_fd_sc_hd__decap_12
XFILLER_2_105 VGND VGND VPWR VPWR sky130_fd_sc_hd__decap_12
XFILLER_20_215 VGND VGND VPWR VPWR sky130_fd_sc_hd__decap_8
XFILLER_1_171 VGND VGND VPWR VPWR sky130_fd_sc_hd__decap_12
X_43_ _43_/HI _43_/LO VGND VGND VPWR VPWR sky130_fd_sc_hd__conb_1
XFILLER_27_3 VGND VGND VPWR VPWR sky130_fd_sc_hd__decap_8
Xmem_left_track_27.sky130_fd_sc_hd__dfxtp_1_1_ mux_left_track_27.mux_l1_in_0_/S mux_left_track_27.mux_l2_in_0_/S
+ clkbuf_3_3_0_prog_clk/X VGND VGND VPWR VPWR sky130_fd_sc_hd__dfxtp_1
XFILLER_29_58 VGND VGND VPWR VPWR sky130_fd_sc_hd__decap_3
XFILLER_1_62 VGND VGND VPWR VPWR sky130_fd_sc_hd__decap_12
XFILLER_1_51 VGND VGND VPWR VPWR sky130_fd_sc_hd__decap_8
XFILLER_19_134 VGND VGND VPWR VPWR sky130_fd_sc_hd__fill_1
XFILLER_19_112 VGND VGND VPWR VPWR sky130_fd_sc_hd__decap_8
XFILLER_25_104 VGND VGND VPWR VPWR sky130_fd_sc_hd__fill_1
XPHY_187 VGND VPWR sky130_fd_sc_hd__tapvpwrvgnd_1
XFILLER_31_118 VGND VGND VPWR VPWR sky130_fd_sc_hd__decap_4
XPHY_176 VGND VPWR sky130_fd_sc_hd__tapvpwrvgnd_1
XPHY_165 VGND VPWR sky130_fd_sc_hd__tapvpwrvgnd_1
XPHY_154 VGND VPWR sky130_fd_sc_hd__tapvpwrvgnd_1
XPHY_143 VGND VPWR sky130_fd_sc_hd__tapvpwrvgnd_1
XPHY_132 VGND VPWR sky130_fd_sc_hd__tapvpwrvgnd_1
XPHY_121 VGND VPWR sky130_fd_sc_hd__tapvpwrvgnd_1
XPHY_110 VGND VPWR sky130_fd_sc_hd__tapvpwrvgnd_1
XPHY_1 VGND VGND VPWR VPWR sky130_fd_sc_hd__decap_3
XFILLER_21_184 VGND VGND VPWR VPWR sky130_fd_sc_hd__decap_12
Xclkbuf_3_2_0_prog_clk clkbuf_3_3_0_prog_clk/A clkbuf_3_2_0_prog_clk/X VGND VGND VPWR
+ VPWR sky130_fd_sc_hd__clkbuf_1
XFILLER_32_80 VGND VGND VPWR VPWR sky130_fd_sc_hd__decap_12
XFILLER_8_166 VGND VGND VPWR VPWR sky130_fd_sc_hd__decap_12
XFILLER_5_147 VGND VGND VPWR VPWR sky130_fd_sc_hd__decap_12
XFILLER_32_213 VGND VGND VPWR VPWR sky130_fd_sc_hd__fill_1
XFILLER_4_40 VGND VGND VPWR VPWR sky130_fd_sc_hd__fill_1
XFILLER_4_62 VGND VGND VPWR VPWR sky130_fd_sc_hd__decap_12
XFILLER_14_213 VGND VGND VPWR VPWR sky130_fd_sc_hd__fill_1
XFILLER_2_117 VGND VGND VPWR VPWR sky130_fd_sc_hd__decap_12
XFILLER_13_71 VGND VGND VPWR VPWR sky130_fd_sc_hd__decap_8
X_42_ _42_/HI _42_/LO VGND VGND VPWR VPWR sky130_fd_sc_hd__conb_1
XFILLER_24_81 VGND VGND VPWR VPWR sky130_fd_sc_hd__decap_8
Xmem_left_track_27.sky130_fd_sc_hd__dfxtp_1_0_ mux_left_track_25.mux_l2_in_0_/S mux_left_track_27.mux_l1_in_0_/S
+ clkbuf_3_3_0_prog_clk/X VGND VGND VPWR VPWR sky130_fd_sc_hd__dfxtp_1
XFILLER_1_74 VGND VGND VPWR VPWR sky130_fd_sc_hd__decap_12
XFILLER_28_102 VGND VGND VPWR VPWR sky130_fd_sc_hd__decap_8
XFILLER_19_168 VGND VGND VPWR VPWR sky130_fd_sc_hd__decap_12
XFILLER_19_81 VGND VGND VPWR VPWR sky130_fd_sc_hd__fill_2
XFILLER_33_160 VGND VGND VPWR VPWR sky130_fd_sc_hd__decap_8
XPHY_100 VGND VPWR sky130_fd_sc_hd__tapvpwrvgnd_1
XPHY_188 VGND VPWR sky130_fd_sc_hd__tapvpwrvgnd_1
XPHY_177 VGND VPWR sky130_fd_sc_hd__tapvpwrvgnd_1
XPHY_166 VGND VPWR sky130_fd_sc_hd__tapvpwrvgnd_1
XFILLER_24_160 VGND VGND VPWR VPWR sky130_fd_sc_hd__decap_12
XPHY_155 VGND VPWR sky130_fd_sc_hd__tapvpwrvgnd_1
XFILLER_21_71 VGND VGND VPWR VPWR sky130_fd_sc_hd__decap_12
XPHY_144 VGND VPWR sky130_fd_sc_hd__tapvpwrvgnd_1
XPHY_133 VGND VPWR sky130_fd_sc_hd__tapvpwrvgnd_1
XFILLER_15_182 VGND VGND VPWR VPWR sky130_fd_sc_hd__fill_1
XPHY_122 VGND VPWR sky130_fd_sc_hd__tapvpwrvgnd_1
XPHY_2 VGND VGND VPWR VPWR sky130_fd_sc_hd__decap_3
XPHY_111 VGND VPWR sky130_fd_sc_hd__tapvpwrvgnd_1
Xmux_left_track_5.sky130_fd_sc_hd__buf_4_0_ mux_left_track_5.mux_l3_in_0_/X _77_/A
+ VGND VGND VPWR VPWR sky130_fd_sc_hd__buf_4
XFILLER_21_196 VGND VGND VPWR VPWR sky130_fd_sc_hd__decap_12
XFILLER_16_93 VGND VGND VPWR VPWR sky130_fd_sc_hd__decap_8
XFILLER_16_82 VGND VGND VPWR VPWR sky130_fd_sc_hd__decap_8
XFILLER_12_174 VGND VGND VPWR VPWR sky130_fd_sc_hd__decap_8
XFILLER_8_101 VGND VGND VPWR VPWR sky130_fd_sc_hd__fill_1
XFILLER_8_178 VGND VGND VPWR VPWR sky130_fd_sc_hd__decap_12
XFILLER_26_211 VGND VGND VPWR VPWR sky130_fd_sc_hd__decap_3
XFILLER_5_159 VGND VGND VPWR VPWR sky130_fd_sc_hd__decap_12
Xmem_left_track_1.sky130_fd_sc_hd__dfxtp_1_2_ mux_left_track_1.mux_l2_in_0_/S mux_left_track_1.mux_l3_in_0_/S
+ clkbuf_3_0_0_prog_clk/X VGND VGND VPWR VPWR sky130_fd_sc_hd__dfxtp_1
XFILLER_4_74 VGND VGND VPWR VPWR sky130_fd_sc_hd__decap_12
XFILLER_2_129 VGND VGND VPWR VPWR sky130_fd_sc_hd__decap_12
XFILLER_1_184 VGND VGND VPWR VPWR sky130_fd_sc_hd__decap_12
X_41_ _41_/HI _41_/LO VGND VGND VPWR VPWR sky130_fd_sc_hd__conb_1
XFILLER_1_86 VGND VGND VPWR VPWR sky130_fd_sc_hd__decap_12
Xmux_left_track_15.sky130_fd_sc_hd__buf_4_0_ mux_left_track_15.mux_l2_in_0_/X _72_/A
+ VGND VGND VPWR VPWR sky130_fd_sc_hd__buf_4
Xmem_top_track_4.sky130_fd_sc_hd__dfxtp_1_2_ mux_top_track_4.mux_l2_in_1_/S mux_top_track_4.mux_l3_in_0_/S
+ clkbuf_3_2_0_prog_clk/X VGND VGND VPWR VPWR sky130_fd_sc_hd__dfxtp_1
XFILLER_10_40 VGND VGND VPWR VPWR sky130_fd_sc_hd__fill_2
XFILLER_27_180 VGND VGND VPWR VPWR sky130_fd_sc_hd__decap_3
XFILLER_33_172 VGND VGND VPWR VPWR sky130_fd_sc_hd__decap_12
XPHY_189 VGND VPWR sky130_fd_sc_hd__tapvpwrvgnd_1
XPHY_178 VGND VPWR sky130_fd_sc_hd__tapvpwrvgnd_1
XPHY_167 VGND VPWR sky130_fd_sc_hd__tapvpwrvgnd_1
XFILLER_24_172 VGND VGND VPWR VPWR sky130_fd_sc_hd__decap_12
XPHY_156 VGND VPWR sky130_fd_sc_hd__tapvpwrvgnd_1
XFILLER_21_83 VGND VGND VPWR VPWR sky130_fd_sc_hd__decap_4
XPHY_145 VGND VPWR sky130_fd_sc_hd__tapvpwrvgnd_1
XPHY_134 VGND VPWR sky130_fd_sc_hd__tapvpwrvgnd_1
XFILLER_16_117 VGND VGND VPWR VPWR sky130_fd_sc_hd__decap_8
XPHY_123 VGND VPWR sky130_fd_sc_hd__tapvpwrvgnd_1
XPHY_101 VGND VPWR sky130_fd_sc_hd__tapvpwrvgnd_1
XPHY_112 VGND VPWR sky130_fd_sc_hd__tapvpwrvgnd_1
XFILLER_30_120 VGND VGND VPWR VPWR sky130_fd_sc_hd__decap_8
XFILLER_26_17 VGND VGND VPWR VPWR sky130_fd_sc_hd__decap_12
XPHY_3 VGND VGND VPWR VPWR sky130_fd_sc_hd__decap_3
XFILLER_7_30 VGND VGND VPWR VPWR sky130_fd_sc_hd__decap_8
Xmux_left_track_3.mux_l3_in_0_ mux_left_track_3.mux_l2_in_1_/X mux_left_track_3.mux_l2_in_0_/X
+ mux_left_track_3.mux_l3_in_0_/S mux_left_track_3.mux_l3_in_0_/X VGND VGND VPWR VPWR
+ sky130_fd_sc_hd__mux2_1
XFILLER_12_120 VGND VGND VPWR VPWR sky130_fd_sc_hd__decap_4
Xmem_left_track_1.sky130_fd_sc_hd__dfxtp_1_1_ mux_left_track_1.mux_l1_in_0_/S mux_left_track_1.mux_l2_in_0_/S
+ clkbuf_3_0_0_prog_clk/X VGND VGND VPWR VPWR sky130_fd_sc_hd__dfxtp_1
XFILLER_32_215 VGND VGND VPWR VPWR sky130_fd_sc_hd__decap_8
Xmux_left_track_3.mux_l2_in_1_ _56_/HI left_bottom_grid_pin_11_ mux_left_track_3.mux_l2_in_0_/S
+ mux_left_track_3.mux_l2_in_1_/X VGND VGND VPWR VPWR sky130_fd_sc_hd__mux2_1
XFILLER_4_86 VGND VGND VPWR VPWR sky130_fd_sc_hd__decap_6
XFILLER_14_215 VGND VGND VPWR VPWR sky130_fd_sc_hd__decap_8
X_40_ _40_/HI _40_/LO VGND VGND VPWR VPWR sky130_fd_sc_hd__conb_1
XFILLER_1_196 VGND VGND VPWR VPWR sky130_fd_sc_hd__decap_12
Xmem_left_track_7.sky130_fd_sc_hd__dfxtp_1_2_ mux_left_track_7.mux_l2_in_1_/S mux_left_track_7.mux_l3_in_0_/S
+ clkbuf_3_7_0_prog_clk/X VGND VGND VPWR VPWR sky130_fd_sc_hd__dfxtp_1
Xmux_top_track_16.mux_l2_in_0_ _37_/HI mux_top_track_16.mux_l1_in_0_/X mux_top_track_16.mux_l2_in_0_/S
+ mux_top_track_16.mux_l2_in_0_/X VGND VGND VPWR VPWR sky130_fd_sc_hd__mux2_1
XFILLER_1_98 VGND VGND VPWR VPWR sky130_fd_sc_hd__decap_12
XFILLER_29_17 VGND VGND VPWR VPWR sky130_fd_sc_hd__fill_1
Xmem_top_track_4.sky130_fd_sc_hd__dfxtp_1_1_ mux_top_track_4.mux_l1_in_1_/S mux_top_track_4.mux_l2_in_1_/S
+ clkbuf_3_2_0_prog_clk/X VGND VGND VPWR VPWR sky130_fd_sc_hd__dfxtp_1
XFILLER_19_126 VGND VGND VPWR VPWR sky130_fd_sc_hd__decap_8
XFILLER_19_50 VGND VGND VPWR VPWR sky130_fd_sc_hd__decap_8
XFILLER_33_184 VGND VGND VPWR VPWR sky130_fd_sc_hd__fill_2
XFILLER_25_129 VGND VGND VPWR VPWR sky130_fd_sc_hd__decap_8
XFILLER_25_3 VGND VGND VPWR VPWR sky130_fd_sc_hd__decap_8
XFILLER_18_170 VGND VGND VPWR VPWR sky130_fd_sc_hd__decap_8
XPHY_179 VGND VPWR sky130_fd_sc_hd__tapvpwrvgnd_1
Xmux_left_track_11.mux_l2_in_0_ _48_/HI mux_left_track_11.mux_l1_in_0_/X mux_left_track_11.mux_l2_in_0_/S
+ mux_left_track_11.mux_l2_in_0_/X VGND VGND VPWR VPWR sky130_fd_sc_hd__mux2_1
XPHY_168 VGND VPWR sky130_fd_sc_hd__tapvpwrvgnd_1
XFILLER_24_184 VGND VGND VPWR VPWR sky130_fd_sc_hd__decap_12
XPHY_157 VGND VPWR sky130_fd_sc_hd__tapvpwrvgnd_1
XFILLER_24_140 VGND VGND VPWR VPWR sky130_fd_sc_hd__decap_12
XPHY_146 VGND VPWR sky130_fd_sc_hd__tapvpwrvgnd_1
XFILLER_21_51 VGND VGND VPWR VPWR sky130_fd_sc_hd__decap_8
XPHY_135 VGND VPWR sky130_fd_sc_hd__tapvpwrvgnd_1
XPHY_124 VGND VPWR sky130_fd_sc_hd__tapvpwrvgnd_1
XPHY_102 VGND VPWR sky130_fd_sc_hd__tapvpwrvgnd_1
Xmem_top_track_20.sky130_fd_sc_hd__dfxtp_1_1_ mux_top_track_20.mux_l1_in_0_/S mux_top_track_20.mux_l2_in_0_/S
+ clkbuf_3_4_0_prog_clk/X VGND VGND VPWR VPWR sky130_fd_sc_hd__dfxtp_1
XPHY_113 VGND VPWR sky130_fd_sc_hd__tapvpwrvgnd_1
XPHY_4 VGND VGND VPWR VPWR sky130_fd_sc_hd__decap_3
XFILLER_7_86 VGND VGND VPWR VPWR sky130_fd_sc_hd__fill_2
XFILLER_11_9 VGND VGND VPWR VPWR sky130_fd_sc_hd__fill_1
XFILLER_29_221 VGND VGND VPWR VPWR sky130_fd_sc_hd__fill_2
XFILLER_26_29 VGND VGND VPWR VPWR sky130_fd_sc_hd__fill_2
XFILLER_21_154 VGND VGND VPWR VPWR sky130_fd_sc_hd__decap_8
XFILLER_21_132 VGND VGND VPWR VPWR sky130_fd_sc_hd__decap_12
XFILLER_32_61 VGND VGND VPWR VPWR sky130_fd_sc_hd__decap_8
Xmem_left_track_13.sky130_fd_sc_hd__dfxtp_1_1_ mux_left_track_13.mux_l1_in_0_/S mux_left_track_13.mux_l2_in_0_/S
+ clkbuf_3_7_0_prog_clk/X VGND VGND VPWR VPWR sky130_fd_sc_hd__dfxtp_1
XFILLER_32_205 VGND VGND VPWR VPWR sky130_fd_sc_hd__decap_8
Xmem_left_track_1.sky130_fd_sc_hd__dfxtp_1_0_ mux_top_track_26.mux_l2_in_0_/S mux_left_track_1.mux_l1_in_0_/S
+ clkbuf_3_0_0_prog_clk/X VGND VGND VPWR VPWR sky130_fd_sc_hd__dfxtp_1
Xmux_left_track_3.mux_l2_in_0_ left_bottom_grid_pin_7_ mux_left_track_3.mux_l1_in_0_/X
+ mux_left_track_3.mux_l2_in_0_/S mux_left_track_3.mux_l2_in_0_/X VGND VGND VPWR VPWR
+ sky130_fd_sc_hd__mux2_1
XFILLER_23_19 VGND VGND VPWR VPWR sky130_fd_sc_hd__fill_2
Xclkbuf_3_1_0_prog_clk clkbuf_2_0_0_prog_clk/X clkbuf_3_1_0_prog_clk/X VGND VGND VPWR
+ VPWR sky130_fd_sc_hd__clkbuf_1
XFILLER_4_32 VGND VGND VPWR VPWR sky130_fd_sc_hd__decap_8
XFILLER_20_208 VGND VGND VPWR VPWR sky130_fd_sc_hd__decap_6
XFILLER_9_220 VGND VGND VPWR VPWR sky130_fd_sc_hd__decap_3
X_99_ _99_/A chany_top_out[0] VGND VGND VPWR VPWR sky130_fd_sc_hd__buf_2
XFILLER_24_40 VGND VGND VPWR VPWR sky130_fd_sc_hd__fill_1
Xmem_left_track_7.sky130_fd_sc_hd__dfxtp_1_1_ mux_left_track_7.mux_l1_in_0_/S mux_left_track_7.mux_l2_in_1_/S