* NGSPICE file created from sb_2__0_.ext - technology: sky130A

* Black-box entry subcircuit for sky130_fd_sc_hd__fill_2 abstract view
.subckt sky130_fd_sc_hd__fill_2 VGND VNB VPB VPWR
.ends

* Black-box entry subcircuit for sky130_fd_sc_hd__decap_12 abstract view
.subckt sky130_fd_sc_hd__decap_12 VGND VNB VPB VPWR
.ends

* Black-box entry subcircuit for sky130_fd_sc_hd__fill_1 abstract view
.subckt sky130_fd_sc_hd__fill_1 VGND VNB VPB VPWR
.ends

* Black-box entry subcircuit for sky130_fd_sc_hd__buf_2 abstract view
.subckt sky130_fd_sc_hd__buf_2 A X VGND VNB VPB VPWR
.ends

* Black-box entry subcircuit for sky130_fd_sc_hd__decap_8 abstract view
.subckt sky130_fd_sc_hd__decap_8 VGND VNB VPB VPWR
.ends

* Black-box entry subcircuit for sky130_fd_sc_hd__diode_2 abstract view
.subckt sky130_fd_sc_hd__diode_2 DIODE VGND VNB VPB VPWR
.ends

* Black-box entry subcircuit for sky130_fd_sc_hd__decap_6 abstract view
.subckt sky130_fd_sc_hd__decap_6 VGND VNB VPB VPWR
.ends

* Black-box entry subcircuit for sky130_fd_sc_hd__conb_1 abstract view
.subckt sky130_fd_sc_hd__conb_1 HI LO VGND VNB VPB VPWR
.ends

* Black-box entry subcircuit for sky130_fd_sc_hd__clkbuf_1 abstract view
.subckt sky130_fd_sc_hd__clkbuf_1 A X VGND VNB VPB VPWR
.ends

* Black-box entry subcircuit for sky130_fd_sc_hd__decap_4 abstract view
.subckt sky130_fd_sc_hd__decap_4 VGND VNB VPB VPWR
.ends

* Black-box entry subcircuit for sky130_fd_sc_hd__dfxbp_1 abstract view
.subckt sky130_fd_sc_hd__dfxbp_1 D Q Q_N CLK VGND VNB VPB VPWR
.ends

* Black-box entry subcircuit for sky130_fd_sc_hd__decap_3 abstract view
.subckt sky130_fd_sc_hd__decap_3 VGND VNB VPB VPWR
.ends

* Black-box entry subcircuit for sky130_fd_sc_hd__tapvpwrvgnd_1 abstract view
.subckt sky130_fd_sc_hd__tapvpwrvgnd_1 VGND VPWR
.ends

* Black-box entry subcircuit for sky130_fd_sc_hd__buf_4 abstract view
.subckt sky130_fd_sc_hd__buf_4 A X VGND VNB VPB VPWR
.ends

* Black-box entry subcircuit for sky130_fd_sc_hd__mux2_1 abstract view
.subckt sky130_fd_sc_hd__mux2_1 A0 A1 S X VGND VNB VPB VPWR
.ends

* Black-box entry subcircuit for sky130_fd_sc_hd__clkbuf_16 abstract view
.subckt sky130_fd_sc_hd__clkbuf_16 A X VGND VNB VPB VPWR
.ends

.subckt sb_2__0_ ccff_head ccff_tail chanx_left_in[0] chanx_left_in[10] chanx_left_in[11]
+ chanx_left_in[12] chanx_left_in[13] chanx_left_in[14] chanx_left_in[15] chanx_left_in[16]
+ chanx_left_in[17] chanx_left_in[18] chanx_left_in[19] chanx_left_in[1] chanx_left_in[2]
+ chanx_left_in[3] chanx_left_in[4] chanx_left_in[5] chanx_left_in[6] chanx_left_in[7]
+ chanx_left_in[8] chanx_left_in[9] chanx_left_out[0] chanx_left_out[10] chanx_left_out[11]
+ chanx_left_out[12] chanx_left_out[13] chanx_left_out[14] chanx_left_out[15] chanx_left_out[16]
+ chanx_left_out[17] chanx_left_out[18] chanx_left_out[19] chanx_left_out[1] chanx_left_out[2]
+ chanx_left_out[3] chanx_left_out[4] chanx_left_out[5] chanx_left_out[6] chanx_left_out[7]
+ chanx_left_out[8] chanx_left_out[9] chany_top_in[0] chany_top_in[10] chany_top_in[11]
+ chany_top_in[12] chany_top_in[13] chany_top_in[14] chany_top_in[15] chany_top_in[16]
+ chany_top_in[17] chany_top_in[18] chany_top_in[19] chany_top_in[1] chany_top_in[2]
+ chany_top_in[3] chany_top_in[4] chany_top_in[5] chany_top_in[6] chany_top_in[7]
+ chany_top_in[8] chany_top_in[9] chany_top_out[0] chany_top_out[10] chany_top_out[11]
+ chany_top_out[12] chany_top_out[13] chany_top_out[14] chany_top_out[15] chany_top_out[16]
+ chany_top_out[17] chany_top_out[18] chany_top_out[19] chany_top_out[1] chany_top_out[2]
+ chany_top_out[3] chany_top_out[4] chany_top_out[5] chany_top_out[6] chany_top_out[7]
+ chany_top_out[8] chany_top_out[9] left_bottom_grid_pin_11_ left_bottom_grid_pin_1_
+ left_bottom_grid_pin_3_ left_bottom_grid_pin_5_ left_bottom_grid_pin_7_ left_bottom_grid_pin_9_
+ prog_clk top_left_grid_pin_42_ top_left_grid_pin_43_ top_left_grid_pin_44_ top_left_grid_pin_45_
+ top_left_grid_pin_46_ top_left_grid_pin_47_ top_left_grid_pin_48_ top_left_grid_pin_49_
+ top_right_grid_pin_1_ VPWR VGND
XFILLER_22_122 VGND VGND VPWR VPWR sky130_fd_sc_hd__fill_2
XFILLER_22_166 VGND VGND VPWR VPWR sky130_fd_sc_hd__decap_12
XFILLER_13_100 VGND VGND VPWR VPWR sky130_fd_sc_hd__fill_1
XFILLER_26_52 VGND VGND VPWR VPWR sky130_fd_sc_hd__fill_2
XFILLER_9_159 VGND VGND VPWR VPWR sky130_fd_sc_hd__decap_12
X_83_ chanx_left_in[4] chany_top_out[16] VGND VGND VPWR VPWR sky130_fd_sc_hd__buf_2
XFILLER_27_269 VGND VGND VPWR VPWR sky130_fd_sc_hd__decap_8
XANTENNA_mux_left_track_35.mux_l1_in_0__A1 chany_top_in[3] VGND VGND VPWR VPWR sky130_fd_sc_hd__diode_2
XFILLER_6_129 VGND VGND VPWR VPWR sky130_fd_sc_hd__decap_12
XFILLER_12_32 VGND VGND VPWR VPWR sky130_fd_sc_hd__fill_2
XANTENNA_mem_left_track_7.sky130_fd_sc_hd__dfxbp_1_1__D mux_left_track_7.mux_l1_in_0_/S
+ VGND VGND VPWR VPWR sky130_fd_sc_hd__diode_2
XFILLER_37_62 VGND VGND VPWR VPWR sky130_fd_sc_hd__fill_2
XFILLER_37_40 VGND VGND VPWR VPWR sky130_fd_sc_hd__fill_2
XFILLER_5_184 VGND VGND VPWR VPWR sky130_fd_sc_hd__decap_12
X_66_ _66_/A chanx_left_out[13] VGND VGND VPWR VPWR sky130_fd_sc_hd__buf_2
XANTENNA_mem_top_track_24.sky130_fd_sc_hd__dfxbp_1_0__CLK clkbuf_3_2_0_prog_clk/X
+ VGND VGND VPWR VPWR sky130_fd_sc_hd__diode_2
XFILLER_24_239 VGND VGND VPWR VPWR sky130_fd_sc_hd__decap_12
XANTENNA_mux_top_track_0.mux_l1_in_0__A0 top_left_grid_pin_44_ VGND VGND VPWR VPWR
+ sky130_fd_sc_hd__diode_2
XFILLER_15_217 VGND VGND VPWR VPWR sky130_fd_sc_hd__decap_12
XFILLER_23_31 VGND VGND VPWR VPWR sky130_fd_sc_hd__fill_1
XFILLER_23_53 VGND VGND VPWR VPWR sky130_fd_sc_hd__fill_2
XFILLER_2_154 VGND VGND VPWR VPWR sky130_fd_sc_hd__decap_12
XFILLER_9_55 VGND VGND VPWR VPWR sky130_fd_sc_hd__decap_6
XFILLER_9_11 VGND VGND VPWR VPWR sky130_fd_sc_hd__fill_2
XANTENNA_clkbuf_2_1_0_prog_clk_A clkbuf_0_prog_clk/X VGND VGND VPWR VPWR sky130_fd_sc_hd__diode_2
X_49_ _49_/HI _49_/LO VGND VGND VPWR VPWR sky130_fd_sc_hd__conb_1
Xclkbuf_3_4_0_prog_clk clkbuf_2_2_0_prog_clk/X clkbuf_3_4_0_prog_clk/X VGND VGND VPWR
+ VPWR sky130_fd_sc_hd__clkbuf_1
XFILLER_18_20 VGND VGND VPWR VPWR sky130_fd_sc_hd__fill_2
XFILLER_18_97 VGND VGND VPWR VPWR sky130_fd_sc_hd__fill_2
XFILLER_11_220 VGND VGND VPWR VPWR sky130_fd_sc_hd__decap_12
XANTENNA__99__A _99_/A VGND VGND VPWR VPWR sky130_fd_sc_hd__diode_2
XANTENNA_mem_top_track_16.sky130_fd_sc_hd__dfxbp_1_1__CLK clkbuf_3_3_0_prog_clk/X
+ VGND VGND VPWR VPWR sky130_fd_sc_hd__diode_2
XANTENNA_mux_left_track_17.mux_l2_in_0__S mux_left_track_17.mux_l2_in_0_/S VGND VGND
+ VPWR VPWR sky130_fd_sc_hd__diode_2
XANTENNA_mem_left_track_27.sky130_fd_sc_hd__dfxbp_1_0__CLK clkbuf_3_5_0_prog_clk/X
+ VGND VGND VPWR VPWR sky130_fd_sc_hd__diode_2
XFILLER_4_227 VGND VGND VPWR VPWR sky130_fd_sc_hd__decap_12
XFILLER_20_54 VGND VGND VPWR VPWR sky130_fd_sc_hd__decap_4
XFILLER_29_30 VGND VGND VPWR VPWR sky130_fd_sc_hd__fill_2
XFILLER_6_56 VGND VGND VPWR VPWR sky130_fd_sc_hd__decap_12
XFILLER_13_3 VGND VGND VPWR VPWR sky130_fd_sc_hd__fill_2
XFILLER_19_150 VGND VGND VPWR VPWR sky130_fd_sc_hd__decap_4
XFILLER_19_194 VGND VGND VPWR VPWR sky130_fd_sc_hd__decap_12
XFILLER_1_208 VGND VGND VPWR VPWR sky130_fd_sc_hd__decap_12
XFILLER_40_145 VGND VGND VPWR VPWR sky130_fd_sc_hd__decap_8
XFILLER_40_134 VGND VGND VPWR VPWR sky130_fd_sc_hd__fill_2
XFILLER_31_53 VGND VGND VPWR VPWR sky130_fd_sc_hd__fill_2
XFILLER_0_230 VGND VGND VPWR VPWR sky130_fd_sc_hd__decap_12
Xmem_left_track_31.sky130_fd_sc_hd__dfxbp_1_0_ mux_left_track_29.mux_l2_in_0_/S mux_left_track_31.mux_l1_in_0_/S
+ mem_left_track_31.sky130_fd_sc_hd__dfxbp_1_0_/Q_N clkbuf_3_5_0_prog_clk/X VGND VGND
+ VPWR VPWR sky130_fd_sc_hd__dfxbp_1
XFILLER_31_167 VGND VGND VPWR VPWR sky130_fd_sc_hd__fill_2
XFILLER_31_156 VGND VGND VPWR VPWR sky130_fd_sc_hd__decap_3
XFILLER_31_123 VGND VGND VPWR VPWR sky130_fd_sc_hd__decap_3
XANTENNA_mux_top_track_0.mux_l2_in_1__S mux_top_track_0.mux_l2_in_0_/S VGND VGND VPWR
+ VPWR sky130_fd_sc_hd__diode_2
XFILLER_16_120 VGND VGND VPWR VPWR sky130_fd_sc_hd__decap_3
XFILLER_16_186 VGND VGND VPWR VPWR sky130_fd_sc_hd__decap_3
XPHY_170 VGND VPWR sky130_fd_sc_hd__tapvpwrvgnd_1
XPHY_181 VGND VPWR sky130_fd_sc_hd__tapvpwrvgnd_1
XPHY_192 VGND VPWR sky130_fd_sc_hd__tapvpwrvgnd_1
XANTENNA_mux_left_track_7.mux_l1_in_0__S mux_left_track_7.mux_l1_in_0_/S VGND VGND
+ VPWR VPWR sky130_fd_sc_hd__diode_2
XFILLER_39_212 VGND VGND VPWR VPWR sky130_fd_sc_hd__fill_2
XFILLER_39_245 VGND VGND VPWR VPWR sky130_fd_sc_hd__decap_12
XANTENNA_mem_left_track_19.sky130_fd_sc_hd__dfxbp_1_1__CLK clkbuf_3_7_0_prog_clk/X
+ VGND VGND VPWR VPWR sky130_fd_sc_hd__diode_2
XFILLER_22_145 VGND VGND VPWR VPWR sky130_fd_sc_hd__fill_2
XFILLER_22_178 VGND VGND VPWR VPWR sky130_fd_sc_hd__decap_12
XFILLER_13_123 VGND VGND VPWR VPWR sky130_fd_sc_hd__decap_12
XFILLER_26_97 VGND VGND VPWR VPWR sky130_fd_sc_hd__fill_1
XFILLER_36_215 VGND VGND VPWR VPWR sky130_fd_sc_hd__decap_12
XFILLER_36_204 VGND VGND VPWR VPWR sky130_fd_sc_hd__decap_8
X_82_ chanx_left_in[3] chany_top_out[17] VGND VGND VPWR VPWR sky130_fd_sc_hd__buf_2
XFILLER_42_218 VGND VGND VPWR VPWR sky130_fd_sc_hd__decap_12
XFILLER_12_22 VGND VGND VPWR VPWR sky130_fd_sc_hd__decap_3
XFILLER_12_55 VGND VGND VPWR VPWR sky130_fd_sc_hd__fill_2
XFILLER_37_85 VGND VGND VPWR VPWR sky130_fd_sc_hd__fill_2
XANTENNA_mem_top_track_0.sky130_fd_sc_hd__dfxbp_1_0__CLK clkbuf_3_0_0_prog_clk/X VGND
+ VGND VPWR VPWR sky130_fd_sc_hd__diode_2
XFILLER_18_215 VGND VGND VPWR VPWR sky130_fd_sc_hd__decap_12
XANTENNA_mux_left_track_1.sky130_fd_sc_hd__buf_4_0__A mux_left_track_1.mux_l3_in_0_/X
+ VGND VGND VPWR VPWR sky130_fd_sc_hd__diode_2
XFILLER_5_196 VGND VGND VPWR VPWR sky130_fd_sc_hd__decap_12
X_65_ _65_/A chanx_left_out[14] VGND VGND VPWR VPWR sky130_fd_sc_hd__buf_2
XFILLER_32_251 VGND VGND VPWR VPWR sky130_fd_sc_hd__decap_12
XANTENNA_mux_left_track_29.mux_l2_in_0__A0 _55_/HI VGND VGND VPWR VPWR sky130_fd_sc_hd__diode_2
XANTENNA_mux_top_track_0.mux_l1_in_0__A1 top_left_grid_pin_42_ VGND VGND VPWR VPWR
+ sky130_fd_sc_hd__diode_2
XFILLER_15_229 VGND VGND VPWR VPWR sky130_fd_sc_hd__decap_12
XFILLER_2_166 VGND VGND VPWR VPWR sky130_fd_sc_hd__decap_12
XFILLER_9_23 VGND VGND VPWR VPWR sky130_fd_sc_hd__fill_2
XFILLER_14_251 VGND VGND VPWR VPWR sky130_fd_sc_hd__decap_12
X_48_ _48_/HI _48_/LO VGND VGND VPWR VPWR sky130_fd_sc_hd__conb_1
Xmux_left_track_9.sky130_fd_sc_hd__buf_4_0_ mux_left_track_9.mux_l2_in_0_/X _75_/A
+ VGND VGND VPWR VPWR sky130_fd_sc_hd__buf_4
XFILLER_20_276 VGND VGND VPWR VPWR sky130_fd_sc_hd__fill_1
XFILLER_11_232 VGND VGND VPWR VPWR sky130_fd_sc_hd__decap_12
XANTENNA_mux_top_track_24.mux_l1_in_0__S mux_top_track_24.mux_l1_in_0_/S VGND VGND
+ VPWR VPWR sky130_fd_sc_hd__diode_2
XANTENNA_mux_left_track_5.mux_l3_in_0__S mux_left_track_5.mux_l3_in_0_/S VGND VGND
+ VPWR VPWR sky130_fd_sc_hd__diode_2
XFILLER_29_118 VGND VGND VPWR VPWR sky130_fd_sc_hd__fill_2
XFILLER_37_184 VGND VGND VPWR VPWR sky130_fd_sc_hd__decap_12
Xmux_left_track_31.sky130_fd_sc_hd__buf_4_0_ mux_left_track_31.mux_l2_in_0_/X _64_/A
+ VGND VGND VPWR VPWR sky130_fd_sc_hd__buf_4
XFILLER_4_239 VGND VGND VPWR VPWR sky130_fd_sc_hd__decap_12
XFILLER_20_88 VGND VGND VPWR VPWR sky130_fd_sc_hd__fill_2
Xmux_top_track_10.mux_l2_in_0_ _34_/HI mux_top_track_10.mux_l1_in_0_/X mux_top_track_10.mux_l2_in_0_/S
+ mux_top_track_10.mux_l2_in_0_/X VGND VGND VPWR VPWR sky130_fd_sc_hd__mux2_1
XANTENNA_mem_top_track_6.sky130_fd_sc_hd__dfxbp_1_2__CLK clkbuf_3_4_0_prog_clk/X VGND
+ VGND VPWR VPWR sky130_fd_sc_hd__diode_2
XFILLER_29_53 VGND VGND VPWR VPWR sky130_fd_sc_hd__fill_2
XFILLER_29_75 VGND VGND VPWR VPWR sky130_fd_sc_hd__fill_2
XFILLER_29_97 VGND VGND VPWR VPWR sky130_fd_sc_hd__fill_2
XFILLER_6_68 VGND VGND VPWR VPWR sky130_fd_sc_hd__decap_12
XFILLER_19_162 VGND VGND VPWR VPWR sky130_fd_sc_hd__decap_6
XFILLER_15_44 VGND VGND VPWR VPWR sky130_fd_sc_hd__fill_2
XFILLER_25_121 VGND VGND VPWR VPWR sky130_fd_sc_hd__fill_1
XFILLER_25_176 VGND VGND VPWR VPWR sky130_fd_sc_hd__decap_6
XFILLER_31_65 VGND VGND VPWR VPWR sky130_fd_sc_hd__decap_3
XFILLER_0_242 VGND VGND VPWR VPWR sky130_fd_sc_hd__decap_6
Xmem_top_track_12.sky130_fd_sc_hd__dfxbp_1_1_ mux_top_track_12.mux_l1_in_0_/S mux_top_track_12.mux_l2_in_0_/S
+ mem_top_track_12.sky130_fd_sc_hd__dfxbp_1_1_/Q_N clkbuf_3_0_0_prog_clk/X VGND VGND
+ VPWR VPWR sky130_fd_sc_hd__dfxbp_1
XPHY_160 VGND VPWR sky130_fd_sc_hd__tapvpwrvgnd_1
XFILLER_16_154 VGND VGND VPWR VPWR sky130_fd_sc_hd__decap_12
XPHY_171 VGND VPWR sky130_fd_sc_hd__tapvpwrvgnd_1
XPHY_182 VGND VPWR sky130_fd_sc_hd__tapvpwrvgnd_1
XPHY_193 VGND VPWR sky130_fd_sc_hd__tapvpwrvgnd_1
XANTENNA_mux_top_track_20.sky130_fd_sc_hd__buf_4_0__A mux_top_track_20.mux_l2_in_0_/X
+ VGND VGND VPWR VPWR sky130_fd_sc_hd__diode_2
XFILLER_39_257 VGND VGND VPWR VPWR sky130_fd_sc_hd__decap_12
XFILLER_39_224 VGND VGND VPWR VPWR sky130_fd_sc_hd__fill_2
Xmux_left_track_25.sky130_fd_sc_hd__buf_4_0_ mux_left_track_25.mux_l2_in_0_/X _67_/A
+ VGND VGND VPWR VPWR sky130_fd_sc_hd__buf_4
XFILLER_26_21 VGND VGND VPWR VPWR sky130_fd_sc_hd__fill_2
XFILLER_42_53 VGND VGND VPWR VPWR sky130_fd_sc_hd__decap_8
XFILLER_13_135 VGND VGND VPWR VPWR sky130_fd_sc_hd__decap_12
X_81_ chanx_left_in[2] chany_top_out[18] VGND VGND VPWR VPWR sky130_fd_sc_hd__buf_2
XFILLER_36_227 VGND VGND VPWR VPWR sky130_fd_sc_hd__decap_12
XFILLER_12_190 VGND VGND VPWR VPWR sky130_fd_sc_hd__decap_12
XANTENNA_mux_top_track_10.mux_l2_in_0__A0 _34_/HI VGND VGND VPWR VPWR sky130_fd_sc_hd__diode_2
XFILLER_10_105 VGND VGND VPWR VPWR sky130_fd_sc_hd__decap_12
XFILLER_37_53 VGND VGND VPWR VPWR sky130_fd_sc_hd__fill_2
XFILLER_37_31 VGND VGND VPWR VPWR sky130_fd_sc_hd__fill_1
XFILLER_33_208 VGND VGND VPWR VPWR sky130_fd_sc_hd__decap_12
XFILLER_18_227 VGND VGND VPWR VPWR sky130_fd_sc_hd__decap_12
Xmux_left_track_19.sky130_fd_sc_hd__buf_4_0_ mux_left_track_19.mux_l2_in_0_/X _70_/A
+ VGND VGND VPWR VPWR sky130_fd_sc_hd__buf_4
X_64_ _64_/A chanx_left_out[15] VGND VGND VPWR VPWR sky130_fd_sc_hd__buf_2
Xmux_left_track_7.mux_l3_in_0_ mux_left_track_7.mux_l2_in_1_/X mux_left_track_7.mux_l2_in_0_/X
+ mux_left_track_7.mux_l3_in_0_/S mux_left_track_7.mux_l3_in_0_/X VGND VGND VPWR VPWR
+ sky130_fd_sc_hd__mux2_1
XFILLER_32_263 VGND VGND VPWR VPWR sky130_fd_sc_hd__decap_12
XFILLER_24_208 VGND VGND VPWR VPWR sky130_fd_sc_hd__decap_6
XANTENNA_mux_left_track_29.mux_l2_in_0__A1 mux_left_track_29.mux_l1_in_0_/X VGND VGND
+ VPWR VPWR sky130_fd_sc_hd__diode_2
XFILLER_23_66 VGND VGND VPWR VPWR sky130_fd_sc_hd__fill_2
XFILLER_3_3 VGND VGND VPWR VPWR sky130_fd_sc_hd__decap_12
XFILLER_0_15 VGND VGND VPWR VPWR sky130_fd_sc_hd__decap_12
XFILLER_2_178 VGND VGND VPWR VPWR sky130_fd_sc_hd__decap_12
XANTENNA_mux_top_track_16.mux_l2_in_0__S mux_top_track_16.mux_l2_in_0_/S VGND VGND
+ VPWR VPWR sky130_fd_sc_hd__diode_2
XFILLER_9_35 VGND VGND VPWR VPWR sky130_fd_sc_hd__fill_1
XFILLER_14_263 VGND VGND VPWR VPWR sky130_fd_sc_hd__decap_12
XFILLER_9_79 VGND VGND VPWR VPWR sky130_fd_sc_hd__fill_2
XFILLER_9_46 VGND VGND VPWR VPWR sky130_fd_sc_hd__decap_3
XFILLER_36_3 VGND VGND VPWR VPWR sky130_fd_sc_hd__fill_1
X_47_ _47_/HI _47_/LO VGND VGND VPWR VPWR sky130_fd_sc_hd__conb_1
XFILLER_34_54 VGND VGND VPWR VPWR sky130_fd_sc_hd__fill_2
XFILLER_34_32 VGND VGND VPWR VPWR sky130_fd_sc_hd__fill_2
XFILLER_18_55 VGND VGND VPWR VPWR sky130_fd_sc_hd__decap_3
XFILLER_7_237 VGND VGND VPWR VPWR sky130_fd_sc_hd__decap_6
Xmux_left_track_7.mux_l2_in_1_ _31_/HI left_bottom_grid_pin_11_ mux_left_track_7.mux_l2_in_1_/S
+ mux_left_track_7.mux_l2_in_1_/X VGND VGND VPWR VPWR sky130_fd_sc_hd__mux2_1
XANTENNA_mem_left_track_9.sky130_fd_sc_hd__dfxbp_1_1__CLK clkbuf_3_7_0_prog_clk/X
+ VGND VGND VPWR VPWR sky130_fd_sc_hd__diode_2
XANTENNA_mem_top_track_2.sky130_fd_sc_hd__dfxbp_1_2__D mux_top_track_2.mux_l2_in_1_/S
+ VGND VGND VPWR VPWR sky130_fd_sc_hd__diode_2
XANTENNA_mux_left_track_7.sky130_fd_sc_hd__buf_4_0__A mux_left_track_7.mux_l3_in_0_/X
+ VGND VGND VPWR VPWR sky130_fd_sc_hd__diode_2
XFILLER_37_196 VGND VGND VPWR VPWR sky130_fd_sc_hd__decap_3
XFILLER_37_130 VGND VGND VPWR VPWR sky130_fd_sc_hd__decap_4
XFILLER_20_23 VGND VGND VPWR VPWR sky130_fd_sc_hd__fill_2
XFILLER_20_67 VGND VGND VPWR VPWR sky130_fd_sc_hd__fill_2
XFILLER_28_152 VGND VGND VPWR VPWR sky130_fd_sc_hd__fill_1
XFILLER_15_56 VGND VGND VPWR VPWR sky130_fd_sc_hd__decap_3
XFILLER_15_67 VGND VGND VPWR VPWR sky130_fd_sc_hd__fill_2
XFILLER_25_100 VGND VGND VPWR VPWR sky130_fd_sc_hd__fill_2
XFILLER_31_99 VGND VGND VPWR VPWR sky130_fd_sc_hd__decap_4
Xmem_top_track_12.sky130_fd_sc_hd__dfxbp_1_0_ mux_top_track_10.mux_l2_in_0_/S mux_top_track_12.mux_l1_in_0_/S
+ mem_top_track_12.sky130_fd_sc_hd__dfxbp_1_0_/Q_N clkbuf_3_1_0_prog_clk/X VGND VGND
+ VPWR VPWR sky130_fd_sc_hd__dfxbp_1
XFILLER_16_166 VGND VGND VPWR VPWR sky130_fd_sc_hd__decap_12
XANTENNA_mux_left_track_13.mux_l2_in_0__S mux_left_track_13.mux_l2_in_0_/S VGND VGND
+ VPWR VPWR sky130_fd_sc_hd__diode_2
XFILLER_31_114 VGND VGND VPWR VPWR sky130_fd_sc_hd__fill_2
XPHY_150 VGND VPWR sky130_fd_sc_hd__tapvpwrvgnd_1
XPHY_161 VGND VPWR sky130_fd_sc_hd__tapvpwrvgnd_1
XPHY_172 VGND VPWR sky130_fd_sc_hd__tapvpwrvgnd_1
XPHY_183 VGND VPWR sky130_fd_sc_hd__tapvpwrvgnd_1
XPHY_194 VGND VPWR sky130_fd_sc_hd__tapvpwrvgnd_1
XFILLER_39_269 VGND VGND VPWR VPWR sky130_fd_sc_hd__decap_8
Xclkbuf_2_1_0_prog_clk clkbuf_0_prog_clk/X clkbuf_3_3_0_prog_clk/A VGND VGND VPWR
+ VPWR sky130_fd_sc_hd__clkbuf_1
XANTENNA_mem_top_track_14.sky130_fd_sc_hd__dfxbp_1_0__D mux_top_track_12.mux_l2_in_0_/S
+ VGND VGND VPWR VPWR sky130_fd_sc_hd__diode_2
Xmux_top_track_10.mux_l1_in_0_ chanx_left_in[15] top_left_grid_pin_43_ mux_top_track_10.mux_l1_in_0_/S
+ mux_top_track_10.mux_l1_in_0_/X VGND VGND VPWR VPWR sky130_fd_sc_hd__mux2_1
XANTENNA_mux_top_track_2.mux_l1_in_1__A0 top_left_grid_pin_49_ VGND VGND VPWR VPWR
+ sky130_fd_sc_hd__diode_2
XFILLER_42_32 VGND VGND VPWR VPWR sky130_fd_sc_hd__decap_8
XFILLER_9_107 VGND VGND VPWR VPWR sky130_fd_sc_hd__decap_12
Xmux_top_track_22.mux_l2_in_0_ _41_/HI mux_top_track_22.mux_l1_in_0_/X mux_top_track_22.mux_l2_in_0_/S
+ mux_top_track_22.mux_l2_in_0_/X VGND VGND VPWR VPWR sky130_fd_sc_hd__mux2_1
XFILLER_13_147 VGND VGND VPWR VPWR sky130_fd_sc_hd__decap_12
XFILLER_26_77 VGND VGND VPWR VPWR sky130_fd_sc_hd__fill_1
XFILLER_26_88 VGND VGND VPWR VPWR sky130_fd_sc_hd__fill_2
XFILLER_42_98 VGND VGND VPWR VPWR sky130_fd_sc_hd__decap_6
X_80_ chanx_left_in[1] chany_top_out[19] VGND VGND VPWR VPWR sky130_fd_sc_hd__buf_2
XFILLER_3_59 VGND VGND VPWR VPWR sky130_fd_sc_hd__fill_2
XFILLER_3_15 VGND VGND VPWR VPWR sky130_fd_sc_hd__decap_12
XFILLER_36_239 VGND VGND VPWR VPWR sky130_fd_sc_hd__decap_12
XANTENNA_mux_top_track_10.mux_l2_in_0__A1 mux_top_track_10.mux_l1_in_0_/X VGND VGND
+ VPWR VPWR sky130_fd_sc_hd__diode_2
XANTENNA_mux_top_track_0.sky130_fd_sc_hd__buf_4_0__A mux_top_track_0.mux_l3_in_0_/X
+ VGND VGND VPWR VPWR sky130_fd_sc_hd__diode_2
XANTENNA_mux_left_track_3.mux_l1_in_0__S mux_left_track_3.mux_l1_in_0_/S VGND VGND
+ VPWR VPWR sky130_fd_sc_hd__diode_2
XFILLER_10_117 VGND VGND VPWR VPWR sky130_fd_sc_hd__decap_12
XFILLER_37_10 VGND VGND VPWR VPWR sky130_fd_sc_hd__fill_2
XFILLER_41_220 VGND VGND VPWR VPWR sky130_fd_sc_hd__decap_12
Xmux_left_track_15.mux_l2_in_0_ _50_/HI mux_left_track_15.mux_l1_in_0_/X mux_left_track_15.mux_l2_in_0_/S
+ mux_left_track_15.mux_l2_in_0_/X VGND VGND VPWR VPWR sky130_fd_sc_hd__mux2_1
XFILLER_18_239 VGND VGND VPWR VPWR sky130_fd_sc_hd__decap_12
XFILLER_5_110 VGND VGND VPWR VPWR sky130_fd_sc_hd__decap_12
XANTENNA_mux_left_track_29.sky130_fd_sc_hd__buf_4_0__A mux_left_track_29.mux_l2_in_0_/X
+ VGND VGND VPWR VPWR sky130_fd_sc_hd__diode_2
X_63_ _63_/A chanx_left_out[16] VGND VGND VPWR VPWR sky130_fd_sc_hd__buf_2
Xmem_top_track_18.sky130_fd_sc_hd__dfxbp_1_1_ mux_top_track_18.mux_l1_in_0_/S mux_top_track_18.mux_l2_in_0_/S
+ mem_top_track_18.sky130_fd_sc_hd__dfxbp_1_1_/Q_N clkbuf_3_2_0_prog_clk/X VGND VGND
+ VPWR VPWR sky130_fd_sc_hd__dfxbp_1
XANTENNA_mux_top_track_2.mux_l2_in_0__A0 mux_top_track_2.mux_l1_in_1_/X VGND VGND
+ VPWR VPWR sky130_fd_sc_hd__diode_2
XFILLER_4_80 VGND VGND VPWR VPWR sky130_fd_sc_hd__decap_12
XANTENNA_mux_top_track_26.sky130_fd_sc_hd__buf_4_0__A mux_top_track_26.mux_l2_in_0_/X
+ VGND VGND VPWR VPWR sky130_fd_sc_hd__diode_2
XFILLER_23_220 VGND VGND VPWR VPWR sky130_fd_sc_hd__decap_3
XFILLER_23_231 VGND VGND VPWR VPWR sky130_fd_sc_hd__decap_12
XFILLER_23_23 VGND VGND VPWR VPWR sky130_fd_sc_hd__fill_2
XANTENNA_mux_top_track_6.mux_l2_in_0__S mux_top_track_6.mux_l2_in_0_/S VGND VGND VPWR
+ VPWR sky130_fd_sc_hd__diode_2
XFILLER_0_27 VGND VGND VPWR VPWR sky130_fd_sc_hd__decap_4
XFILLER_9_69 VGND VGND VPWR VPWR sky130_fd_sc_hd__decap_6
XFILLER_29_3 VGND VGND VPWR VPWR sky130_fd_sc_hd__fill_2
X_46_ _46_/HI _46_/LO VGND VGND VPWR VPWR sky130_fd_sc_hd__conb_1
XFILLER_34_11 VGND VGND VPWR VPWR sky130_fd_sc_hd__fill_2
XFILLER_7_249 VGND VGND VPWR VPWR sky130_fd_sc_hd__fill_2
XFILLER_11_245 VGND VGND VPWR VPWR sky130_fd_sc_hd__decap_12
Xmux_left_track_7.mux_l2_in_0_ left_bottom_grid_pin_7_ mux_left_track_7.mux_l1_in_0_/X
+ mux_left_track_7.mux_l2_in_1_/S mux_left_track_7.mux_l2_in_0_/X VGND VGND VPWR VPWR
+ sky130_fd_sc_hd__mux2_1
XFILLER_37_164 VGND VGND VPWR VPWR sky130_fd_sc_hd__decap_12
Xmux_top_track_0.mux_l3_in_0_ mux_top_track_0.mux_l2_in_1_/X mux_top_track_0.mux_l2_in_0_/X
+ mux_top_track_0.mux_l3_in_0_/S mux_top_track_0.mux_l3_in_0_/X VGND VGND VPWR VPWR
+ sky130_fd_sc_hd__mux2_1
XFILLER_20_35 VGND VGND VPWR VPWR sky130_fd_sc_hd__decap_4
XFILLER_6_15 VGND VGND VPWR VPWR sky130_fd_sc_hd__decap_12
Xclkbuf_3_3_0_prog_clk clkbuf_3_3_0_prog_clk/A clkbuf_3_3_0_prog_clk/X VGND VGND VPWR
+ VPWR sky130_fd_sc_hd__clkbuf_1
XFILLER_34_145 VGND VGND VPWR VPWR sky130_fd_sc_hd__decap_8
XANTENNA_mux_top_track_20.mux_l1_in_0__S mux_top_track_20.mux_l1_in_0_/S VGND VGND
+ VPWR VPWR sky130_fd_sc_hd__diode_2
XFILLER_19_175 VGND VGND VPWR VPWR sky130_fd_sc_hd__fill_2
XANTENNA_mux_left_track_1.mux_l3_in_0__S mux_left_track_1.mux_l3_in_0_/S VGND VGND
+ VPWR VPWR sky130_fd_sc_hd__diode_2
XFILLER_25_123 VGND VGND VPWR VPWR sky130_fd_sc_hd__decap_4
XANTENNA_mem_left_track_13.sky130_fd_sc_hd__dfxbp_1_0__D mux_left_track_11.mux_l2_in_0_/S
+ VGND VGND VPWR VPWR sky130_fd_sc_hd__diode_2
XFILLER_25_134 VGND VGND VPWR VPWR sky130_fd_sc_hd__fill_2
XFILLER_31_45 VGND VGND VPWR VPWR sky130_fd_sc_hd__fill_2
XFILLER_0_211 VGND VGND VPWR VPWR sky130_fd_sc_hd__decap_6
XFILLER_16_112 VGND VGND VPWR VPWR sky130_fd_sc_hd__fill_2
XFILLER_16_145 VGND VGND VPWR VPWR sky130_fd_sc_hd__decap_8
XFILLER_16_178 VGND VGND VPWR VPWR sky130_fd_sc_hd__decap_8
XPHY_140 VGND VPWR sky130_fd_sc_hd__tapvpwrvgnd_1
XPHY_151 VGND VPWR sky130_fd_sc_hd__tapvpwrvgnd_1
XPHY_162 VGND VPWR sky130_fd_sc_hd__tapvpwrvgnd_1
XPHY_173 VGND VPWR sky130_fd_sc_hd__tapvpwrvgnd_1
XPHY_184 VGND VPWR sky130_fd_sc_hd__tapvpwrvgnd_1
XPHY_195 VGND VPWR sky130_fd_sc_hd__tapvpwrvgnd_1
Xmux_top_track_0.mux_l2_in_1_ _33_/HI mux_top_track_0.mux_l1_in_2_/X mux_top_track_0.mux_l2_in_0_/S
+ mux_top_track_0.mux_l2_in_1_/X VGND VGND VPWR VPWR sky130_fd_sc_hd__mux2_1
XANTENNA_mux_left_track_7.mux_l2_in_1__S mux_left_track_7.mux_l2_in_1_/S VGND VGND
+ VPWR VPWR sky130_fd_sc_hd__diode_2
XFILLER_39_204 VGND VGND VPWR VPWR sky130_fd_sc_hd__decap_4
XFILLER_11_3 VGND VGND VPWR VPWR sky130_fd_sc_hd__fill_2
XANTENNA_mux_left_track_11.mux_l2_in_0__A0 _48_/HI VGND VGND VPWR VPWR sky130_fd_sc_hd__diode_2
XANTENNA_mux_top_track_2.mux_l1_in_1__A1 top_left_grid_pin_47_ VGND VGND VPWR VPWR
+ sky130_fd_sc_hd__diode_2
XFILLER_13_104 VGND VGND VPWR VPWR sky130_fd_sc_hd__fill_2
XFILLER_26_56 VGND VGND VPWR VPWR sky130_fd_sc_hd__fill_2
XFILLER_9_119 VGND VGND VPWR VPWR sky130_fd_sc_hd__decap_3
XFILLER_13_159 VGND VGND VPWR VPWR sky130_fd_sc_hd__decap_12
XFILLER_21_181 VGND VGND VPWR VPWR sky130_fd_sc_hd__fill_2
XFILLER_3_27 VGND VGND VPWR VPWR sky130_fd_sc_hd__decap_12
Xmux_top_track_22.sky130_fd_sc_hd__buf_4_0_ mux_top_track_22.mux_l2_in_0_/X _88_/A
+ VGND VGND VPWR VPWR sky130_fd_sc_hd__buf_4
XFILLER_8_141 VGND VGND VPWR VPWR sky130_fd_sc_hd__decap_12
XFILLER_10_129 VGND VGND VPWR VPWR sky130_fd_sc_hd__decap_12
XFILLER_12_14 VGND VGND VPWR VPWR sky130_fd_sc_hd__fill_2
XFILLER_41_232 VGND VGND VPWR VPWR sky130_fd_sc_hd__decap_12
Xmux_top_track_0.mux_l1_in_2_ chanx_left_in[0] top_right_grid_pin_1_ mux_top_track_0.mux_l1_in_0_/S
+ mux_top_track_0.mux_l1_in_2_/X VGND VGND VPWR VPWR sky130_fd_sc_hd__mux2_1
XFILLER_26_251 VGND VGND VPWR VPWR sky130_fd_sc_hd__decap_12
X_62_ _62_/A chanx_left_out[17] VGND VGND VPWR VPWR sky130_fd_sc_hd__buf_2
XANTENNA_mux_top_track_2.mux_l2_in_0__A1 mux_top_track_2.mux_l1_in_0_/X VGND VGND
+ VPWR VPWR sky130_fd_sc_hd__diode_2
XFILLER_32_276 VGND VGND VPWR VPWR sky130_fd_sc_hd__fill_1
Xmem_top_track_18.sky130_fd_sc_hd__dfxbp_1_0_ mux_top_track_16.mux_l2_in_0_/S mux_top_track_18.mux_l1_in_0_/S
+ mem_top_track_18.sky130_fd_sc_hd__dfxbp_1_0_/Q_N clkbuf_3_3_0_prog_clk/X VGND VGND
+ VPWR VPWR sky130_fd_sc_hd__dfxbp_1
XANTENNA_mux_top_track_14.mux_l1_in_0__A0 chanx_left_in[13] VGND VGND VPWR VPWR sky130_fd_sc_hd__diode_2
XANTENNA_mux_left_track_1.mux_l2_in_0__A0 left_bottom_grid_pin_5_ VGND VGND VPWR VPWR
+ sky130_fd_sc_hd__diode_2
Xmux_top_track_22.mux_l1_in_0_ chanx_left_in[9] top_left_grid_pin_49_ mux_top_track_22.mux_l1_in_0_/S
+ mux_top_track_22.mux_l1_in_0_/X VGND VGND VPWR VPWR sky130_fd_sc_hd__mux2_1
Xmux_top_track_16.sky130_fd_sc_hd__buf_4_0_ mux_top_track_16.mux_l2_in_0_/X _91_/A
+ VGND VGND VPWR VPWR sky130_fd_sc_hd__buf_4
XFILLER_23_243 VGND VGND VPWR VPWR sky130_fd_sc_hd__fill_1
XFILLER_23_57 VGND VGND VPWR VPWR sky130_fd_sc_hd__fill_2
XFILLER_23_79 VGND VGND VPWR VPWR sky130_fd_sc_hd__fill_2
XANTENNA_mem_top_track_4.sky130_fd_sc_hd__dfxbp_1_0__CLK clkbuf_3_1_0_prog_clk/X VGND
+ VGND VPWR VPWR sky130_fd_sc_hd__diode_2
XANTENNA_mem_left_track_1.sky130_fd_sc_hd__dfxbp_1_2__D mux_left_track_1.mux_l2_in_1_/S
+ VGND VGND VPWR VPWR sky130_fd_sc_hd__diode_2
XFILLER_9_15 VGND VGND VPWR VPWR sky130_fd_sc_hd__decap_8
XFILLER_14_276 VGND VGND VPWR VPWR sky130_fd_sc_hd__fill_1
XFILLER_13_90 VGND VGND VPWR VPWR sky130_fd_sc_hd__fill_2
X_45_ _45_/HI _45_/LO VGND VGND VPWR VPWR sky130_fd_sc_hd__conb_1
XFILLER_20_213 VGND VGND VPWR VPWR sky130_fd_sc_hd__fill_1
Xmux_left_track_15.mux_l1_in_0_ left_bottom_grid_pin_7_ chany_top_in[13] mux_left_track_15.mux_l1_in_0_/S
+ mux_left_track_15.mux_l1_in_0_/X VGND VGND VPWR VPWR sky130_fd_sc_hd__mux2_1
XFILLER_18_24 VGND VGND VPWR VPWR sky130_fd_sc_hd__fill_2
XFILLER_34_23 VGND VGND VPWR VPWR sky130_fd_sc_hd__fill_2
XFILLER_11_257 VGND VGND VPWR VPWR sky130_fd_sc_hd__decap_12
XANTENNA_mux_top_track_6.sky130_fd_sc_hd__buf_4_0__A mux_top_track_6.mux_l3_in_0_/X
+ VGND VGND VPWR VPWR sky130_fd_sc_hd__diode_2
Xmux_left_track_27.mux_l2_in_0_ _54_/HI mux_left_track_27.mux_l1_in_0_/X mux_left_track_27.mux_l2_in_0_/S
+ mux_left_track_27.mux_l2_in_0_/X VGND VGND VPWR VPWR sky130_fd_sc_hd__mux2_1
XANTENNA_mux_top_track_12.mux_l2_in_0__S mux_top_track_12.mux_l2_in_0_/S VGND VGND
+ VPWR VPWR sky130_fd_sc_hd__diode_2
XFILLER_37_110 VGND VGND VPWR VPWR sky130_fd_sc_hd__decap_8
XFILLER_1_60 VGND VGND VPWR VPWR sky130_fd_sc_hd__fill_1
XFILLER_37_176 VGND VGND VPWR VPWR sky130_fd_sc_hd__decap_6
XFILLER_28_143 VGND VGND VPWR VPWR sky130_fd_sc_hd__fill_1
XFILLER_28_154 VGND VGND VPWR VPWR sky130_fd_sc_hd__decap_12
XANTENNA_mem_top_track_24.sky130_fd_sc_hd__dfxbp_1_0__D mux_top_track_22.mux_l2_in_0_/S
+ VGND VGND VPWR VPWR sky130_fd_sc_hd__diode_2
XFILLER_6_27 VGND VGND VPWR VPWR sky130_fd_sc_hd__decap_4
XFILLER_3_253 VGND VGND VPWR VPWR sky130_fd_sc_hd__fill_2
XFILLER_3_220 VGND VGND VPWR VPWR sky130_fd_sc_hd__decap_12
XFILLER_10_91 VGND VGND VPWR VPWR sky130_fd_sc_hd__fill_1
XFILLER_19_110 VGND VGND VPWR VPWR sky130_fd_sc_hd__fill_2
XFILLER_19_132 VGND VGND VPWR VPWR sky130_fd_sc_hd__fill_2
XFILLER_34_157 VGND VGND VPWR VPWR sky130_fd_sc_hd__decap_12
XANTENNA_mem_left_track_3.sky130_fd_sc_hd__dfxbp_1_2__CLK clkbuf_3_6_0_prog_clk/X
+ VGND VGND VPWR VPWR sky130_fd_sc_hd__diode_2
Xmux_left_track_7.mux_l1_in_0_ left_bottom_grid_pin_3_ chany_top_in[17] mux_left_track_7.mux_l1_in_0_/S
+ mux_left_track_7.mux_l1_in_0_/X VGND VGND VPWR VPWR sky130_fd_sc_hd__mux2_1
XFILLER_40_138 VGND VGND VPWR VPWR sky130_fd_sc_hd__decap_4
XFILLER_31_24 VGND VGND VPWR VPWR sky130_fd_sc_hd__fill_2
Xmux_top_track_0.sky130_fd_sc_hd__buf_4_0_ mux_top_track_0.mux_l3_in_0_/X _99_/A VGND
+ VGND VPWR VPWR sky130_fd_sc_hd__buf_4
XFILLER_31_57 VGND VGND VPWR VPWR sky130_fd_sc_hd__fill_2
XANTENNA_mem_top_track_4.sky130_fd_sc_hd__dfxbp_1_0__D mux_top_track_2.mux_l3_in_0_/S
+ VGND VGND VPWR VPWR sky130_fd_sc_hd__diode_2
XPHY_130 VGND VPWR sky130_fd_sc_hd__tapvpwrvgnd_1
XPHY_141 VGND VPWR sky130_fd_sc_hd__tapvpwrvgnd_1
XPHY_152 VGND VPWR sky130_fd_sc_hd__tapvpwrvgnd_1
XPHY_163 VGND VPWR sky130_fd_sc_hd__tapvpwrvgnd_1
XPHY_174 VGND VPWR sky130_fd_sc_hd__tapvpwrvgnd_1
XPHY_185 VGND VPWR sky130_fd_sc_hd__tapvpwrvgnd_1
XPHY_196 VGND VPWR sky130_fd_sc_hd__tapvpwrvgnd_1
XFILLER_39_216 VGND VGND VPWR VPWR sky130_fd_sc_hd__fill_2
Xmux_top_track_0.mux_l2_in_0_ mux_top_track_0.mux_l1_in_1_/X mux_top_track_0.mux_l1_in_0_/X
+ mux_top_track_0.mux_l2_in_0_/S mux_top_track_0.mux_l2_in_0_/X VGND VGND VPWR VPWR
+ sky130_fd_sc_hd__mux2_1
XFILLER_30_160 VGND VGND VPWR VPWR sky130_fd_sc_hd__fill_2
XFILLER_22_149 VGND VGND VPWR VPWR sky130_fd_sc_hd__decap_4
XANTENNA_mux_left_track_11.mux_l2_in_0__A1 mux_left_track_11.mux_l1_in_0_/X VGND VGND
+ VPWR VPWR sky130_fd_sc_hd__diode_2
XFILLER_26_35 VGND VGND VPWR VPWR sky130_fd_sc_hd__fill_2
XFILLER_42_67 VGND VGND VPWR VPWR sky130_fd_sc_hd__decap_8
XFILLER_3_39 VGND VGND VPWR VPWR sky130_fd_sc_hd__decap_12
XANTENNA_mux_top_track_22.mux_l1_in_0__A0 chanx_left_in[9] VGND VGND VPWR VPWR sky130_fd_sc_hd__diode_2
XFILLER_27_208 VGND VGND VPWR VPWR sky130_fd_sc_hd__decap_12
XFILLER_12_59 VGND VGND VPWR VPWR sky130_fd_sc_hd__fill_2
XFILLER_37_89 VGND VGND VPWR VPWR sky130_fd_sc_hd__fill_2
XFILLER_37_34 VGND VGND VPWR VPWR sky130_fd_sc_hd__decap_4
Xmux_top_track_0.mux_l1_in_1_ top_left_grid_pin_48_ top_left_grid_pin_46_ mux_top_track_0.mux_l1_in_0_/S
+ mux_top_track_0.mux_l1_in_1_/X VGND VGND VPWR VPWR sky130_fd_sc_hd__mux2_1