* NGSPICE file created from sb_2__0_.ext - technology: sky130A

* Black-box entry subcircuit for sky130_fd_sc_hd__fill_2 abstract view
.subckt sky130_fd_sc_hd__fill_2 VGND VNB VPB VPWR
.ends

* Black-box entry subcircuit for sky130_fd_sc_hd__dfxtp_1 abstract view
.subckt sky130_fd_sc_hd__dfxtp_1 CLK D VGND VNB VPB VPWR Q
.ends

* Black-box entry subcircuit for sky130_fd_sc_hd__decap_12 abstract view
.subckt sky130_fd_sc_hd__decap_12 VGND VNB VPB VPWR
.ends

* Black-box entry subcircuit for sky130_fd_sc_hd__diode_2 abstract view
.subckt sky130_fd_sc_hd__diode_2 DIODE VGND VNB VPB VPWR
.ends

* Black-box entry subcircuit for sky130_fd_sc_hd__conb_1 abstract view
.subckt sky130_fd_sc_hd__conb_1 VGND VNB VPB VPWR HI LO
.ends

* Black-box entry subcircuit for sky130_fd_sc_hd__decap_8 abstract view
.subckt sky130_fd_sc_hd__decap_8 VGND VNB VPB VPWR
.ends

* Black-box entry subcircuit for sky130_fd_sc_hd__decap_3 abstract view
.subckt sky130_fd_sc_hd__decap_3 VGND VNB VPB VPWR
.ends

* Black-box entry subcircuit for sky130_fd_sc_hd__decap_4 abstract view
.subckt sky130_fd_sc_hd__decap_4 VGND VNB VPB VPWR
.ends

* Black-box entry subcircuit for sky130_fd_sc_hd__tapvpwrvgnd_1 abstract view
.subckt sky130_fd_sc_hd__tapvpwrvgnd_1 VGND VPWR
.ends

* Black-box entry subcircuit for sky130_fd_sc_hd__fill_1 abstract view
.subckt sky130_fd_sc_hd__fill_1 VGND VNB VPB VPWR
.ends

* Black-box entry subcircuit for sky130_fd_sc_hd__buf_4 abstract view
.subckt sky130_fd_sc_hd__buf_4 A VGND VNB VPB VPWR X
.ends

* Black-box entry subcircuit for sky130_fd_sc_hd__mux2_1 abstract view
.subckt sky130_fd_sc_hd__mux2_1 A0 A1 S VGND VNB VPB VPWR X
.ends

* Black-box entry subcircuit for sky130_fd_sc_hd__clkbuf_16 abstract view
.subckt sky130_fd_sc_hd__clkbuf_16 A VGND VNB VPB VPWR X
.ends

* Black-box entry subcircuit for sky130_fd_sc_hd__clkbuf_1 abstract view
.subckt sky130_fd_sc_hd__clkbuf_1 A VGND VNB VPB VPWR X
.ends

* Black-box entry subcircuit for sky130_fd_sc_hd__buf_8 abstract view
.subckt sky130_fd_sc_hd__buf_8 A VGND VNB VPB VPWR X
.ends

* Black-box entry subcircuit for sky130_fd_sc_hd__decap_6 abstract view
.subckt sky130_fd_sc_hd__decap_6 VGND VNB VPB VPWR
.ends

* Black-box entry subcircuit for sky130_fd_sc_hd__buf_2 abstract view
.subckt sky130_fd_sc_hd__buf_2 A VGND VNB VPB VPWR X
.ends

.subckt sb_2__0_ ccff_head ccff_tail chanx_left_in[0] chanx_left_in[10] chanx_left_in[11]
+ chanx_left_in[12] chanx_left_in[13] chanx_left_in[14] chanx_left_in[15] chanx_left_in[16]
+ chanx_left_in[17] chanx_left_in[18] chanx_left_in[19] chanx_left_in[1] chanx_left_in[2]
+ chanx_left_in[3] chanx_left_in[4] chanx_left_in[5] chanx_left_in[6] chanx_left_in[7]
+ chanx_left_in[8] chanx_left_in[9] chanx_left_out[0] chanx_left_out[10] chanx_left_out[11]
+ chanx_left_out[12] chanx_left_out[13] chanx_left_out[14] chanx_left_out[15] chanx_left_out[16]
+ chanx_left_out[17] chanx_left_out[18] chanx_left_out[19] chanx_left_out[1] chanx_left_out[2]
+ chanx_left_out[3] chanx_left_out[4] chanx_left_out[5] chanx_left_out[6] chanx_left_out[7]
+ chanx_left_out[8] chanx_left_out[9] chany_top_in[0] chany_top_in[10] chany_top_in[11]
+ chany_top_in[12] chany_top_in[13] chany_top_in[14] chany_top_in[15] chany_top_in[16]
+ chany_top_in[17] chany_top_in[18] chany_top_in[19] chany_top_in[1] chany_top_in[2]
+ chany_top_in[3] chany_top_in[4] chany_top_in[5] chany_top_in[6] chany_top_in[7]
+ chany_top_in[8] chany_top_in[9] chany_top_out[0] chany_top_out[10] chany_top_out[11]
+ chany_top_out[12] chany_top_out[13] chany_top_out[14] chany_top_out[15] chany_top_out[16]
+ chany_top_out[17] chany_top_out[18] chany_top_out[19] chany_top_out[1] chany_top_out[2]
+ chany_top_out[3] chany_top_out[4] chany_top_out[5] chany_top_out[6] chany_top_out[7]
+ chany_top_out[8] chany_top_out[9] left_bottom_grid_pin_11_ left_bottom_grid_pin_13_
+ left_bottom_grid_pin_15_ left_bottom_grid_pin_17_ left_bottom_grid_pin_1_ left_bottom_grid_pin_3_
+ left_bottom_grid_pin_5_ left_bottom_grid_pin_7_ left_bottom_grid_pin_9_ prog_clk_0_N_in
+ top_left_grid_pin_42_ top_left_grid_pin_43_ top_left_grid_pin_44_ top_left_grid_pin_45_
+ top_left_grid_pin_46_ top_left_grid_pin_47_ top_left_grid_pin_48_ top_left_grid_pin_49_
+ top_right_grid_pin_1_ VPWR VGND
XFILLER_22_144 VGND VGND VPWR VPWR sky130_fd_sc_hd__fill_2
Xmem_left_track_17.sky130_fd_sc_hd__dfxtp_1_0_ clkbuf_3_3_0_mem_left_track_1.prog_clk/X
+ mux_left_track_15.mux_l2_in_0_/S VGND VGND VPWR VPWR mux_left_track_17.mux_l1_in_0_/S
+ sky130_fd_sc_hd__dfxtp_1
XFILLER_13_166 VGND VGND VPWR VPWR sky130_fd_sc_hd__decap_12
XFILLER_9_159 VGND VGND VPWR VPWR sky130_fd_sc_hd__decap_12
XANTENNA_mux_left_track_35.mux_l1_in_0__A1 chany_top_in[3] VGND VGND VPWR VPWR sky130_fd_sc_hd__diode_2
XFILLER_6_129 VGND VGND VPWR VPWR sky130_fd_sc_hd__decap_12
XFILLER_10_114 VGND VGND VPWR VPWR sky130_fd_sc_hd__decap_12
XFILLER_12_32 VGND VGND VPWR VPWR sky130_fd_sc_hd__fill_2
XFILLER_5_184 VGND VGND VPWR VPWR sky130_fd_sc_hd__decap_12
XANTENNA_mux_top_track_0.mux_l1_in_0__A0 top_left_grid_pin_44_ VGND VGND VPWR VPWR
+ sky130_fd_sc_hd__diode_2
X_062_ VGND VGND VPWR VPWR _062_/HI _062_/LO sky130_fd_sc_hd__conb_1
XFILLER_2_154 VGND VGND VPWR VPWR sky130_fd_sc_hd__decap_12
XFILLER_9_55 VGND VGND VPWR VPWR sky130_fd_sc_hd__fill_2
XFILLER_22_7 VGND VGND VPWR VPWR sky130_fd_sc_hd__fill_2
X_045_ VGND VGND VPWR VPWR _045_/HI _045_/LO sky130_fd_sc_hd__conb_1
XFILLER_7_213 VGND VGND VPWR VPWR sky130_fd_sc_hd__decap_8
XFILLER_11_220 VGND VGND VPWR VPWR sky130_fd_sc_hd__decap_3
XFILLER_29_96 VGND VGND VPWR VPWR sky130_fd_sc_hd__decap_12
XFILLER_29_41 VGND VGND VPWR VPWR sky130_fd_sc_hd__fill_2
XFILLER_28_194 VGND VGND VPWR VPWR sky130_fd_sc_hd__fill_2
XFILLER_13_3 VGND VGND VPWR VPWR sky130_fd_sc_hd__decap_4
XFILLER_6_56 VGND VGND VPWR VPWR sky130_fd_sc_hd__decap_12
XFILLER_25_120 VGND VGND VPWR VPWR sky130_fd_sc_hd__fill_2
XFILLER_17_109 VGND VGND VPWR VPWR sky130_fd_sc_hd__fill_2
XFILLER_1_208 VGND VGND VPWR VPWR sky130_fd_sc_hd__decap_12
XPHY_192 VGND VPWR sky130_fd_sc_hd__tapvpwrvgnd_1
XFILLER_31_145 VGND VGND VPWR VPWR sky130_fd_sc_hd__decap_3
XFILLER_31_123 VGND VGND VPWR VPWR sky130_fd_sc_hd__fill_1
XPHY_181 VGND VPWR sky130_fd_sc_hd__tapvpwrvgnd_1
XFILLER_31_64 VGND VGND VPWR VPWR sky130_fd_sc_hd__decap_4
XPHY_170 VGND VPWR sky130_fd_sc_hd__tapvpwrvgnd_1
XFILLER_22_101 VGND VGND VPWR VPWR sky130_fd_sc_hd__fill_1
XFILLER_13_178 VGND VGND VPWR VPWR sky130_fd_sc_hd__decap_4
XFILLER_13_123 VGND VGND VPWR VPWR sky130_fd_sc_hd__decap_12
XFILLER_9_105 VGND VGND VPWR VPWR sky130_fd_sc_hd__decap_12
XFILLER_33_218 VGND VGND VPWR VPWR sky130_fd_sc_hd__decap_4
XFILLER_18_215 VGND VGND VPWR VPWR sky130_fd_sc_hd__decap_8
XFILLER_10_126 VGND VGND VPWR VPWR sky130_fd_sc_hd__decap_12
XFILLER_12_11 VGND VGND VPWR VPWR sky130_fd_sc_hd__fill_2
XFILLER_5_196 VGND VGND VPWR VPWR sky130_fd_sc_hd__decap_12
XANTENNA_mux_top_track_0.mux_l1_in_0__A1 top_left_grid_pin_42_ VGND VGND VPWR VPWR
+ sky130_fd_sc_hd__diode_2
X_061_ VGND VGND VPWR VPWR _061_/HI _061_/LO sky130_fd_sc_hd__conb_1
XFILLER_2_166 VGND VGND VPWR VPWR sky130_fd_sc_hd__decap_12
XFILLER_9_89 VGND VGND VPWR VPWR sky130_fd_sc_hd__fill_2
Xmux_left_track_9.sky130_fd_sc_hd__buf_4_0_ mux_left_track_9.mux_l2_in_0_/X VGND VGND
+ VPWR VPWR _072_/A sky130_fd_sc_hd__buf_4
X_044_ VGND VGND VPWR VPWR _044_/HI _044_/LO sky130_fd_sc_hd__conb_1
Xmux_left_track_31.sky130_fd_sc_hd__buf_4_0_ mux_left_track_31.mux_l2_in_0_/X VGND
+ VGND VPWR VPWR _083_/A sky130_fd_sc_hd__buf_4
XFILLER_20_77 VGND VGND VPWR VPWR sky130_fd_sc_hd__decap_4
Xmux_top_track_10.mux_l2_in_0_ _043_/HI mux_top_track_10.mux_l1_in_0_/X mux_top_track_10.mux_l2_in_0_/S
+ VGND VGND VPWR VPWR mux_top_track_10.mux_l2_in_0_/X sky130_fd_sc_hd__mux2_1
Xmem_left_track_35.sky130_fd_sc_hd__dfxtp_1_1_ clkbuf_3_2_0_mem_left_track_1.prog_clk/X
+ mux_left_track_35.mux_l1_in_0_/S VGND VGND VPWR VPWR mux_left_track_35.mux_l2_in_0_/S
+ sky130_fd_sc_hd__dfxtp_1
XFILLER_28_151 VGND VGND VPWR VPWR sky130_fd_sc_hd__fill_2
XANTENNA_mem_top_track_0.sky130_fd_sc_hd__dfxtp_1_0__D ccff_head VGND VGND VPWR VPWR
+ sky130_fd_sc_hd__diode_2
XFILLER_6_68 VGND VGND VPWR VPWR sky130_fd_sc_hd__decap_12
XFILLER_25_176 VGND VGND VPWR VPWR sky130_fd_sc_hd__decap_3
XFILLER_25_132 VGND VGND VPWR VPWR sky130_fd_sc_hd__decap_4
XPHY_193 VGND VPWR sky130_fd_sc_hd__tapvpwrvgnd_1
XFILLER_31_179 VGND VGND VPWR VPWR sky130_fd_sc_hd__decap_4
XPHY_182 VGND VPWR sky130_fd_sc_hd__tapvpwrvgnd_1
XPHY_171 VGND VPWR sky130_fd_sc_hd__tapvpwrvgnd_1
XPHY_160 VGND VPWR sky130_fd_sc_hd__tapvpwrvgnd_1
XFILLER_16_154 VGND VGND VPWR VPWR sky130_fd_sc_hd__decap_4
XFILLER_30_190 VGND VGND VPWR VPWR sky130_fd_sc_hd__fill_2
XFILLER_22_179 VGND VGND VPWR VPWR sky130_fd_sc_hd__fill_1
Xmux_left_track_25.sky130_fd_sc_hd__buf_4_0_ mux_left_track_25.mux_l2_in_0_/X VGND
+ VGND VPWR VPWR _080_/A sky130_fd_sc_hd__buf_4
XFILLER_13_135 VGND VGND VPWR VPWR sky130_fd_sc_hd__decap_12
XFILLER_9_117 VGND VGND VPWR VPWR sky130_fd_sc_hd__decap_4
XFILLER_12_190 VGND VGND VPWR VPWR sky130_fd_sc_hd__decap_12
XFILLER_10_138 VGND VGND VPWR VPWR sky130_fd_sc_hd__decap_12
Xmux_left_track_19.sky130_fd_sc_hd__buf_4_0_ mux_left_track_19.mux_l2_in_0_/X VGND
+ VGND VPWR VPWR _077_/A sky130_fd_sc_hd__buf_4
Xmux_left_track_7.mux_l3_in_0_ mux_left_track_7.mux_l2_in_1_/X mux_left_track_7.mux_l2_in_0_/X
+ mux_left_track_7.mux_l3_in_0_/S VGND VGND VPWR VPWR mux_left_track_7.mux_l3_in_0_/X
+ sky130_fd_sc_hd__mux2_1
Xclkbuf_0_mem_left_track_1.prog_clk prog_clk_0_FTB00/X VGND VGND VPWR VPWR clkbuf_0_mem_left_track_1.prog_clk/X
+ sky130_fd_sc_hd__clkbuf_16
X_060_ VGND VGND VPWR VPWR _060_/HI _060_/LO sky130_fd_sc_hd__conb_1
Xmem_top_track_10.sky130_fd_sc_hd__dfxtp_1_1_ clkbuf_3_4_0_mem_left_track_1.prog_clk/X
+ mux_top_track_10.mux_l1_in_0_/S VGND VGND VPWR VPWR mux_top_track_10.mux_l2_in_0_/S
+ sky130_fd_sc_hd__dfxtp_1
XFILLER_3_3 VGND VGND VPWR VPWR sky130_fd_sc_hd__decap_12
XFILLER_2_178 VGND VGND VPWR VPWR sky130_fd_sc_hd__decap_12
XFILLER_0_15 VGND VGND VPWR VPWR sky130_fd_sc_hd__decap_12
Xclkbuf_2_0_0_mem_left_track_1.prog_clk clkbuf_2_1_0_mem_left_track_1.prog_clk/A VGND
+ VGND VPWR VPWR clkbuf_2_0_0_mem_left_track_1.prog_clk/X sky130_fd_sc_hd__clkbuf_1
X_043_ VGND VGND VPWR VPWR _043_/HI _043_/LO sky130_fd_sc_hd__conb_1
Xmux_left_track_7.mux_l2_in_1_ _040_/HI left_bottom_grid_pin_15_ mux_left_track_7.mux_l2_in_0_/S
+ VGND VGND VPWR VPWR mux_left_track_7.mux_l2_in_1_/X sky130_fd_sc_hd__mux2_1
XFILLER_7_204 VGND VGND VPWR VPWR sky130_fd_sc_hd__fill_1
XFILLER_29_108 VGND VGND VPWR VPWR sky130_fd_sc_hd__decap_12
XFILLER_20_23 VGND VGND VPWR VPWR sky130_fd_sc_hd__decap_3
XFILLER_29_76 VGND VGND VPWR VPWR sky130_fd_sc_hd__fill_2
XFILLER_28_174 VGND VGND VPWR VPWR sky130_fd_sc_hd__decap_8
Xmem_left_track_35.sky130_fd_sc_hd__dfxtp_1_0_ clkbuf_3_2_0_mem_left_track_1.prog_clk/X
+ mux_left_track_33.mux_l2_in_0_/S VGND VGND VPWR VPWR mux_left_track_35.mux_l1_in_0_/S
+ sky130_fd_sc_hd__dfxtp_1
XFILLER_19_141 VGND VGND VPWR VPWR sky130_fd_sc_hd__fill_1
XFILLER_31_88 VGND VGND VPWR VPWR sky130_fd_sc_hd__fill_1
XFILLER_15_78 VGND VGND VPWR VPWR sky130_fd_sc_hd__fill_2
XFILLER_15_34 VGND VGND VPWR VPWR sky130_fd_sc_hd__fill_2
XPHY_183 VGND VPWR sky130_fd_sc_hd__tapvpwrvgnd_1
XPHY_172 VGND VPWR sky130_fd_sc_hd__tapvpwrvgnd_1
XPHY_161 VGND VPWR sky130_fd_sc_hd__tapvpwrvgnd_1
XPHY_150 VGND VPWR sky130_fd_sc_hd__tapvpwrvgnd_1
XANTENNA_mux_top_track_2.mux_l1_in_1__A0 top_left_grid_pin_49_ VGND VGND VPWR VPWR
+ sky130_fd_sc_hd__diode_2
XFILLER_26_11 VGND VGND VPWR VPWR sky130_fd_sc_hd__decap_8
Xmux_top_track_22.mux_l2_in_0_ _050_/HI mux_top_track_22.mux_l1_in_0_/X mux_top_track_22.mux_l2_in_0_/S
+ VGND VGND VPWR VPWR mux_top_track_22.mux_l2_in_0_/X sky130_fd_sc_hd__mux2_1
XFILLER_13_147 VGND VGND VPWR VPWR sky130_fd_sc_hd__decap_4
Xmux_top_track_10.mux_l1_in_0_ chanx_left_in[15] top_left_grid_pin_43_ mux_top_track_10.mux_l1_in_0_/S
+ VGND VGND VPWR VPWR mux_top_track_10.mux_l1_in_0_/X sky130_fd_sc_hd__mux2_1
XFILLER_13_103 VGND VGND VPWR VPWR sky130_fd_sc_hd__fill_1
XFILLER_3_59 VGND VGND VPWR VPWR sky130_fd_sc_hd__fill_2
XFILLER_3_15 VGND VGND VPWR VPWR sky130_fd_sc_hd__decap_12
Xclkbuf_2_3_0_mem_left_track_1.prog_clk clkbuf_2_3_0_mem_left_track_1.prog_clk/A VGND
+ VGND VPWR VPWR clkbuf_3_6_0_mem_left_track_1.prog_clk/A sky130_fd_sc_hd__clkbuf_1
XFILLER_12_68 VGND VGND VPWR VPWR sky130_fd_sc_hd__fill_2
XFILLER_12_79 VGND VGND VPWR VPWR sky130_fd_sc_hd__fill_2
Xmux_left_track_15.mux_l2_in_0_ _059_/HI mux_left_track_15.mux_l1_in_0_/X mux_left_track_15.mux_l2_in_0_/S
+ VGND VGND VPWR VPWR mux_left_track_15.mux_l2_in_0_/X sky130_fd_sc_hd__mux2_1
XFILLER_5_110 VGND VGND VPWR VPWR sky130_fd_sc_hd__decap_12
XFILLER_4_80 VGND VGND VPWR VPWR sky130_fd_sc_hd__decap_12
Xprog_clk_0_FTB00 prog_clk_0_N_in VGND VGND VPWR VPWR prog_clk_0_FTB00/X sky130_fd_sc_hd__buf_8
Xmem_top_track_10.sky130_fd_sc_hd__dfxtp_1_0_ clkbuf_3_1_0_mem_left_track_1.prog_clk/X
+ mux_top_track_8.mux_l2_in_0_/S VGND VGND VPWR VPWR mux_top_track_10.mux_l1_in_0_/S
+ sky130_fd_sc_hd__dfxtp_1
XFILLER_0_27 VGND VGND VPWR VPWR sky130_fd_sc_hd__decap_4
XFILLER_29_3 VGND VGND VPWR VPWR sky130_fd_sc_hd__decap_4
XFILLER_9_47 VGND VGND VPWR VPWR sky130_fd_sc_hd__decap_8
X_042_ VGND VGND VPWR VPWR _042_/HI _042_/LO sky130_fd_sc_hd__conb_1
Xmux_left_track_7.mux_l2_in_0_ mux_left_track_7.mux_l1_in_1_/X mux_left_track_7.mux_l1_in_0_/X
+ mux_left_track_7.mux_l2_in_0_/S VGND VGND VPWR VPWR mux_left_track_7.mux_l2_in_0_/X
+ sky130_fd_sc_hd__mux2_1
Xmux_top_track_0.mux_l3_in_0_ mux_top_track_0.mux_l2_in_1_/X mux_top_track_0.mux_l2_in_0_/X
+ mux_top_track_0.mux_l3_in_0_/S VGND VGND VPWR VPWR mux_top_track_0.mux_l3_in_0_/X
+ sky130_fd_sc_hd__mux2_1
XFILLER_29_11 VGND VGND VPWR VPWR sky130_fd_sc_hd__fill_2
XFILLER_28_142 VGND VGND VPWR VPWR sky130_fd_sc_hd__decap_3
XFILLER_28_120 VGND VGND VPWR VPWR sky130_fd_sc_hd__fill_2
XFILLER_6_15 VGND VGND VPWR VPWR sky130_fd_sc_hd__decap_12
Xmem_top_track_16.sky130_fd_sc_hd__dfxtp_1_1_ clkbuf_3_7_0_mem_left_track_1.prog_clk/X
+ mux_top_track_16.mux_l1_in_0_/S VGND VGND VPWR VPWR mux_top_track_16.mux_l2_in_0_/S
+ sky130_fd_sc_hd__dfxtp_1
XFILLER_19_120 VGND VGND VPWR VPWR sky130_fd_sc_hd__fill_2
XFILLER_25_167 VGND VGND VPWR VPWR sky130_fd_sc_hd__fill_1
XFILLER_15_46 VGND VGND VPWR VPWR sky130_fd_sc_hd__decap_4
Xmux_left_track_7.mux_l1_in_1_ left_bottom_grid_pin_11_ left_bottom_grid_pin_7_ mux_left_track_7.mux_l1_in_0_/S
+ VGND VGND VPWR VPWR mux_left_track_7.mux_l1_in_1_/X sky130_fd_sc_hd__mux2_1
XFILLER_0_222 VGND VGND VPWR VPWR sky130_fd_sc_hd__fill_1
XFILLER_0_211 VGND VGND VPWR VPWR sky130_fd_sc_hd__decap_6
XPHY_184 VGND VPWR sky130_fd_sc_hd__tapvpwrvgnd_1
XPHY_173 VGND VPWR sky130_fd_sc_hd__tapvpwrvgnd_1
XPHY_162 VGND VPWR sky130_fd_sc_hd__tapvpwrvgnd_1
Xmux_top_track_0.mux_l2_in_1_ _042_/HI mux_top_track_0.mux_l1_in_2_/X mux_top_track_0.mux_l2_in_1_/S
+ VGND VGND VPWR VPWR mux_top_track_0.mux_l2_in_1_/X sky130_fd_sc_hd__mux2_1
XPHY_151 VGND VPWR sky130_fd_sc_hd__tapvpwrvgnd_1
XPHY_140 VGND VPWR sky130_fd_sc_hd__tapvpwrvgnd_1
XFILLER_16_145 VGND VGND VPWR VPWR sky130_fd_sc_hd__fill_2
XFILLER_16_134 VGND VGND VPWR VPWR sky130_fd_sc_hd__fill_2
XFILLER_16_123 VGND VGND VPWR VPWR sky130_fd_sc_hd__fill_2
XFILLER_11_3 VGND VGND VPWR VPWR sky130_fd_sc_hd__decap_6
XANTENNA_mux_top_track_2.mux_l1_in_1__A1 top_left_grid_pin_47_ VGND VGND VPWR VPWR
+ sky130_fd_sc_hd__diode_2
XFILLER_22_148 VGND VGND VPWR VPWR sky130_fd_sc_hd__decap_4
XFILLER_22_126 VGND VGND VPWR VPWR sky130_fd_sc_hd__fill_2
XFILLER_22_104 VGND VGND VPWR VPWR sky130_fd_sc_hd__fill_2
XANTENNA_mux_left_track_1.mux_l1_in_1__A0 left_bottom_grid_pin_9_ VGND VGND VPWR VPWR
+ sky130_fd_sc_hd__diode_2
Xmux_top_track_22.sky130_fd_sc_hd__buf_4_0_ mux_top_track_22.mux_l2_in_0_/X VGND VGND
+ VPWR VPWR _099_/A sky130_fd_sc_hd__buf_4
XFILLER_3_27 VGND VGND VPWR VPWR sky130_fd_sc_hd__decap_12
XFILLER_8_141 VGND VGND VPWR VPWR sky130_fd_sc_hd__decap_12
XFILLER_12_36 VGND VGND VPWR VPWR sky130_fd_sc_hd__fill_2
Xmux_top_track_0.mux_l1_in_2_ chanx_left_in[0] top_right_grid_pin_1_ mux_top_track_0.mux_l1_in_1_/S
+ VGND VGND VPWR VPWR mux_top_track_0.mux_l1_in_2_/X sky130_fd_sc_hd__mux2_1
XFILLER_12_47 VGND VGND VPWR VPWR sky130_fd_sc_hd__fill_2
XFILLER_32_210 VGND VGND VPWR VPWR sky130_fd_sc_hd__decap_4
XANTENNA_mux_top_track_14.mux_l1_in_0__A0 chanx_left_in[13] VGND VGND VPWR VPWR sky130_fd_sc_hd__diode_2
Xmux_top_track_16.sky130_fd_sc_hd__buf_4_0_ mux_top_track_16.mux_l2_in_0_/X VGND VGND
+ VPWR VPWR _096_/A sky130_fd_sc_hd__buf_4
XFILLER_23_221 VGND VGND VPWR VPWR sky130_fd_sc_hd__fill_2
Xmux_top_track_22.mux_l1_in_0_ chanx_left_in[9] top_left_grid_pin_49_ mux_top_track_22.mux_l1_in_0_/S
+ VGND VGND VPWR VPWR mux_top_track_22.mux_l1_in_0_/X sky130_fd_sc_hd__mux2_1
XFILLER_23_68 VGND VGND VPWR VPWR sky130_fd_sc_hd__decap_6
XFILLER_23_57 VGND VGND VPWR VPWR sky130_fd_sc_hd__decap_4
XFILLER_23_35 VGND VGND VPWR VPWR sky130_fd_sc_hd__fill_2
XFILLER_9_15 VGND VGND VPWR VPWR sky130_fd_sc_hd__decap_12
XFILLER_9_59 VGND VGND VPWR VPWR sky130_fd_sc_hd__fill_2
Xmux_left_track_15.mux_l1_in_0_ left_bottom_grid_pin_7_ chany_top_in[13] mux_left_track_15.mux_l1_in_0_/S
+ VGND VGND VPWR VPWR mux_left_track_15.mux_l1_in_0_/X sky130_fd_sc_hd__mux2_1
XFILLER_20_213 VGND VGND VPWR VPWR sky130_fd_sc_hd__fill_1
XFILLER_18_68 VGND VGND VPWR VPWR sky130_fd_sc_hd__fill_2
XFILLER_18_57 VGND VGND VPWR VPWR sky130_fd_sc_hd__fill_2
Xmux_left_track_27.mux_l2_in_0_ _065_/HI mux_left_track_27.mux_l1_in_0_/X mux_left_track_27.mux_l2_in_0_/S
+ VGND VGND VPWR VPWR mux_left_track_27.mux_l2_in_0_/X sky130_fd_sc_hd__mux2_1
X_041_ VGND VGND VPWR VPWR _041_/HI _041_/LO sky130_fd_sc_hd__conb_1
Xmem_top_track_16.sky130_fd_sc_hd__dfxtp_1_0_ clkbuf_3_5_0_mem_left_track_1.prog_clk/X
+ mux_top_track_14.mux_l2_in_0_/S VGND VGND VPWR VPWR mux_top_track_16.mux_l1_in_0_/S
+ sky130_fd_sc_hd__dfxtp_1
XFILLER_3_220 VGND VGND VPWR VPWR sky130_fd_sc_hd__decap_3
XFILLER_6_27 VGND VGND VPWR VPWR sky130_fd_sc_hd__decap_4
Xmux_top_track_0.sky130_fd_sc_hd__buf_4_0_ mux_top_track_0.mux_l3_in_0_/X VGND VGND
+ VPWR VPWR _088_/A sky130_fd_sc_hd__buf_4
Xmux_left_track_7.mux_l1_in_0_ left_bottom_grid_pin_3_ chany_top_in[17] mux_left_track_7.mux_l1_in_0_/S
+ VGND VGND VPWR VPWR mux_left_track_7.mux_l1_in_0_/X sky130_fd_sc_hd__mux2_1
XPHY_185 VGND VPWR sky130_fd_sc_hd__tapvpwrvgnd_1
XPHY_174 VGND VPWR sky130_fd_sc_hd__tapvpwrvgnd_1
XPHY_163 VGND VPWR sky130_fd_sc_hd__tapvpwrvgnd_1
Xmux_top_track_0.mux_l2_in_0_ mux_top_track_0.mux_l1_in_1_/X mux_top_track_0.mux_l1_in_0_/X
+ mux_top_track_0.mux_l2_in_1_/S VGND VGND VPWR VPWR mux_top_track_0.mux_l2_in_0_/X
+ sky130_fd_sc_hd__mux2_1
XPHY_152 VGND VPWR sky130_fd_sc_hd__tapvpwrvgnd_1
XPHY_141 VGND VPWR sky130_fd_sc_hd__tapvpwrvgnd_1
XPHY_130 VGND VPWR sky130_fd_sc_hd__tapvpwrvgnd_1
XANTENNA_mux_left_track_1.mux_l1_in_1__A1 left_bottom_grid_pin_5_ VGND VGND VPWR VPWR
+ sky130_fd_sc_hd__diode_2
XFILLER_26_79 VGND VGND VPWR VPWR sky130_fd_sc_hd__fill_2
XFILLER_26_57 VGND VGND VPWR VPWR sky130_fd_sc_hd__decap_6
XFILLER_26_35 VGND VGND VPWR VPWR sky130_fd_sc_hd__decap_6
XANTENNA_mux_top_track_22.mux_l1_in_0__A0 chanx_left_in[9] VGND VGND VPWR VPWR sky130_fd_sc_hd__diode_2
XFILLER_21_193 VGND VGND VPWR VPWR sky130_fd_sc_hd__decap_12
XFILLER_3_39 VGND VGND VPWR VPWR sky130_fd_sc_hd__decap_12
XFILLER_16_90 VGND VGND VPWR VPWR sky130_fd_sc_hd__fill_2
Xmux_top_track_0.mux_l1_in_1_ top_left_grid_pin_48_ top_left_grid_pin_46_ mux_top_track_0.mux_l1_in_1_/S
+ VGND VGND VPWR VPWR mux_top_track_0.mux_l1_in_1_/X sky130_fd_sc_hd__mux2_1
XFILLER_12_59 VGND VGND VPWR VPWR sky130_fd_sc_hd__fill_1
Xmem_left_track_21.sky130_fd_sc_hd__dfxtp_1_1_ clkbuf_3_3_0_mem_left_track_1.prog_clk/X
+ mux_left_track_21.mux_l1_in_0_/S VGND VGND VPWR VPWR mux_left_track_21.mux_l2_in_0_/S
+ sky130_fd_sc_hd__dfxtp_1
XANTENNA_mux_top_track_14.mux_l1_in_0__A1 top_left_grid_pin_45_ VGND VGND VPWR VPWR
+ sky130_fd_sc_hd__diode_2
XFILLER_5_123 VGND VGND VPWR VPWR sky130_fd_sc_hd__decap_12
XFILLER_4_93 VGND VGND VPWR VPWR sky130_fd_sc_hd__decap_12
XFILLER_13_91 VGND VGND VPWR VPWR sky130_fd_sc_hd__fill_2
XFILLER_9_27 VGND VGND VPWR VPWR sky130_fd_sc_hd__fill_2
XANTENNA_mux_top_track_6.mux_l1_in_0__A0 top_left_grid_pin_45_ VGND VGND VPWR VPWR
+ sky130_fd_sc_hd__diode_2
XFILLER_18_25 VGND VGND VPWR VPWR sky130_fd_sc_hd__decap_6
X_040_ VGND VGND VPWR VPWR _040_/HI _040_/LO sky130_fd_sc_hd__conb_1
XFILLER_1_3 VGND VGND VPWR VPWR sky130_fd_sc_hd__decap_12
XFILLER_24_90 VGND VGND VPWR VPWR sky130_fd_sc_hd__fill_2
XFILLER_28_199 VGND VGND VPWR VPWR sky130_fd_sc_hd__decap_12
XANTENNA_mux_top_track_4.mux_l1_in_2__A0 chanx_left_in[18] VGND VGND VPWR VPWR sky130_fd_sc_hd__diode_2
XFILLER_20_59 VGND VGND VPWR VPWR sky130_fd_sc_hd__decap_4
XFILLER_20_48 VGND VGND VPWR VPWR sky130_fd_sc_hd__fill_2
XFILLER_19_133 VGND VGND VPWR VPWR sky130_fd_sc_hd__fill_2
XFILLER_20_9 VGND VGND VPWR VPWR sky130_fd_sc_hd__fill_1
XFILLER_33_180 VGND VGND VPWR VPWR sky130_fd_sc_hd__decap_6
Xmux_left_track_27.mux_l1_in_0_ left_bottom_grid_pin_3_ chany_top_in[7] mux_left_track_27.mux_l1_in_0_/S
+ VGND VGND VPWR VPWR mux_left_track_27.mux_l1_in_0_/X sky130_fd_sc_hd__mux2_1
XFILLER_15_59 VGND VGND VPWR VPWR sky130_fd_sc_hd__fill_2
XPHY_186 VGND VPWR sky130_fd_sc_hd__tapvpwrvgnd_1
XFILLER_31_139 VGND VGND VPWR VPWR sky130_fd_sc_hd__fill_2
XPHY_175 VGND VPWR sky130_fd_sc_hd__tapvpwrvgnd_1
XPHY_164 VGND VPWR sky130_fd_sc_hd__tapvpwrvgnd_1
XPHY_153 VGND VPWR sky130_fd_sc_hd__tapvpwrvgnd_1
Xmux_left_track_39.mux_l2_in_0_ _038_/HI mux_left_track_39.mux_l1_in_0_/X ccff_tail
+ VGND VGND VPWR VPWR mux_left_track_39.mux_l2_in_0_/X sky130_fd_sc_hd__mux2_1
XPHY_142 VGND VPWR sky130_fd_sc_hd__tapvpwrvgnd_1
XPHY_131 VGND VPWR sky130_fd_sc_hd__tapvpwrvgnd_1
XFILLER_16_103 VGND VGND VPWR VPWR sky130_fd_sc_hd__decap_4
XPHY_120 VGND VPWR sky130_fd_sc_hd__tapvpwrvgnd_1
XPHY_0 VGND VGND VPWR VPWR sky130_fd_sc_hd__decap_3
XFILLER_13_106 VGND VGND VPWR VPWR sky130_fd_sc_hd__fill_2
XFILLER_32_90 VGND VGND VPWR VPWR sky130_fd_sc_hd__fill_2
XANTENNA_mux_top_track_22.mux_l1_in_0__A1 top_left_grid_pin_49_ VGND VGND VPWR VPWR
+ sky130_fd_sc_hd__diode_2
XFILLER_16_80 VGND VGND VPWR VPWR sky130_fd_sc_hd__fill_2
XFILLER_8_154 VGND VGND VPWR VPWR sky130_fd_sc_hd__decap_12
XFILLER_8_198 VGND VGND VPWR VPWR sky130_fd_sc_hd__decap_3
XANTENNA_mux_left_track_15.mux_l1_in_0__A0 left_bottom_grid_pin_7_ VGND VGND VPWR
+ VPWR sky130_fd_sc_hd__diode_2
Xmux_top_track_0.mux_l1_in_0_ top_left_grid_pin_44_ top_left_grid_pin_42_ mux_top_track_0.mux_l1_in_1_/S
+ VGND VGND VPWR VPWR mux_top_track_0.mux_l1_in_0_/X sky130_fd_sc_hd__mux2_1
Xmem_left_track_21.sky130_fd_sc_hd__dfxtp_1_0_ clkbuf_3_3_0_mem_left_track_1.prog_clk/X
+ mux_left_track_19.mux_l2_in_0_/S VGND VGND VPWR VPWR mux_left_track_21.mux_l1_in_0_/S
+ sky130_fd_sc_hd__dfxtp_1
XFILLER_5_135 VGND VGND VPWR VPWR sky130_fd_sc_hd__decap_12
XFILLER_4_190 VGND VGND VPWR VPWR sky130_fd_sc_hd__decap_12
XFILLER_14_201 VGND VGND VPWR VPWR sky130_fd_sc_hd__decap_12
XFILLER_2_105 VGND VGND VPWR VPWR sky130_fd_sc_hd__decap_12
XFILLER_20_215 VGND VGND VPWR VPWR sky130_fd_sc_hd__decap_8
XANTENNA_mux_top_track_6.mux_l1_in_0__A1 top_left_grid_pin_43_ VGND VGND VPWR VPWR
+ sky130_fd_sc_hd__diode_2
XFILLER_1_171 VGND VGND VPWR VPWR sky130_fd_sc_hd__decap_12
XANTENNA_mux_left_track_5.mux_l1_in_0__A0 left_bottom_grid_pin_1_ VGND VGND VPWR VPWR
+ sky130_fd_sc_hd__diode_2
XFILLER_18_48 VGND VGND VPWR VPWR sky130_fd_sc_hd__fill_2
X_099_ _099_/A VGND VGND VPWR VPWR chany_top_out[11] sky130_fd_sc_hd__buf_2
XFILLER_27_3 VGND VGND VPWR VPWR sky130_fd_sc_hd__fill_1
XFILLER_29_36 VGND VGND VPWR VPWR sky130_fd_sc_hd__fill_2
XFILLER_28_134 VGND VGND VPWR VPWR sky130_fd_sc_hd__fill_1
XANTENNA_mux_top_track_4.mux_l1_in_2__A1 top_right_grid_pin_1_ VGND VGND VPWR VPWR
+ sky130_fd_sc_hd__diode_2
Xmem_left_track_27.sky130_fd_sc_hd__dfxtp_1_1_ clkbuf_3_0_0_mem_left_track_1.prog_clk/X
+ mux_left_track_27.mux_l1_in_0_/S VGND VGND VPWR VPWR mux_left_track_27.mux_l2_in_0_/S
+ sky130_fd_sc_hd__dfxtp_1
XFILLER_20_16 VGND VGND VPWR VPWR sky130_fd_sc_hd__decap_4
XFILLER_1_62 VGND VGND VPWR VPWR sky130_fd_sc_hd__decap_12
XFILLER_1_51 VGND VGND VPWR VPWR sky130_fd_sc_hd__decap_8
XFILLER_19_178 VGND VGND VPWR VPWR sky130_fd_sc_hd__decap_4
XFILLER_19_167 VGND VGND VPWR VPWR sky130_fd_sc_hd__fill_2
XFILLER_19_145 VGND VGND VPWR VPWR sky130_fd_sc_hd__fill_2
XFILLER_19_123 VGND VGND VPWR VPWR sky130_fd_sc_hd__fill_1
XFILLER_15_38 VGND VGND VPWR VPWR sky130_fd_sc_hd__fill_2
XFILLER_15_16 VGND VGND VPWR VPWR sky130_fd_sc_hd__fill_2
XPHY_187 VGND VPWR sky130_fd_sc_hd__tapvpwrvgnd_1
XFILLER_31_59 VGND VGND VPWR VPWR sky130_fd_sc_hd__fill_2
XFILLER_31_37 VGND VGND VPWR VPWR sky130_fd_sc_hd__fill_2
XFILLER_31_15 VGND VGND VPWR VPWR sky130_fd_sc_hd__decap_6
XPHY_176 VGND VPWR sky130_fd_sc_hd__tapvpwrvgnd_1
XPHY_165 VGND VPWR sky130_fd_sc_hd__tapvpwrvgnd_1
XFILLER_24_181 VGND VGND VPWR VPWR sky130_fd_sc_hd__fill_2
XPHY_154 VGND VPWR sky130_fd_sc_hd__tapvpwrvgnd_1
XPHY_143 VGND VPWR sky130_fd_sc_hd__tapvpwrvgnd_1
XPHY_132 VGND VPWR sky130_fd_sc_hd__tapvpwrvgnd_1
XPHY_121 VGND VPWR sky130_fd_sc_hd__tapvpwrvgnd_1
XPHY_110 VGND VPWR sky130_fd_sc_hd__tapvpwrvgnd_1
XFILLER_30_184 VGND VGND VPWR VPWR sky130_fd_sc_hd__fill_2
XFILLER_30_151 VGND VGND VPWR VPWR sky130_fd_sc_hd__fill_2
XFILLER_30_140 VGND VGND VPWR VPWR sky130_fd_sc_hd__fill_2
XANTENNA_mux_left_track_23.mux_l1_in_0__A0 left_bottom_grid_pin_15_ VGND VGND VPWR
+ VPWR sky130_fd_sc_hd__diode_2
XFILLER_15_181 VGND VGND VPWR VPWR sky130_fd_sc_hd__fill_2
XPHY_1 VGND VGND VPWR VPWR sky130_fd_sc_hd__decap_3
XFILLER_21_173 VGND VGND VPWR VPWR sky130_fd_sc_hd__fill_2
XFILLER_21_162 VGND VGND VPWR VPWR sky130_fd_sc_hd__fill_2
XFILLER_21_151 VGND VGND VPWR VPWR sky130_fd_sc_hd__fill_2
Xclkbuf_1_0_0_mem_left_track_1.prog_clk clkbuf_0_mem_left_track_1.prog_clk/X VGND
+ VGND VPWR VPWR clkbuf_2_1_0_mem_left_track_1.prog_clk/A sky130_fd_sc_hd__clkbuf_1
XFILLER_8_166 VGND VGND VPWR VPWR sky130_fd_sc_hd__decap_12
XANTENNA_mux_left_track_15.mux_l1_in_0__A1 chany_top_in[13] VGND VGND VPWR VPWR sky130_fd_sc_hd__diode_2
Xmux_left_track_39.mux_l1_in_0_ left_bottom_grid_pin_15_ chany_top_in[1] mux_left_track_39.mux_l1_in_0_/S
+ VGND VGND VPWR VPWR mux_left_track_39.mux_l1_in_0_/X sky130_fd_sc_hd__mux2_1
XFILLER_5_147 VGND VGND VPWR VPWR sky130_fd_sc_hd__decap_12
XFILLER_23_16 VGND VGND VPWR VPWR sky130_fd_sc_hd__decap_3
XFILLER_14_213 VGND VGND VPWR VPWR sky130_fd_sc_hd__fill_1
XFILLER_2_117 VGND VGND VPWR VPWR sky130_fd_sc_hd__decap_12
XFILLER_13_71 VGND VGND VPWR VPWR sky130_fd_sc_hd__decap_4
XANTENNA_mux_left_track_5.mux_l1_in_0__A1 chany_top_in[18] VGND VGND VPWR VPWR sky130_fd_sc_hd__diode_2
XFILLER_7_209 VGND VGND VPWR VPWR sky130_fd_sc_hd__fill_2
X_098_ _098_/A VGND VGND VPWR VPWR chany_top_out[10] sky130_fd_sc_hd__buf_2
Xmem_left_track_27.sky130_fd_sc_hd__dfxtp_1_0_ clkbuf_3_0_0_mem_left_track_1.prog_clk/X
+ mux_left_track_25.mux_l2_in_0_/S VGND VGND VPWR VPWR mux_left_track_27.mux_l1_in_0_/S
+ sky130_fd_sc_hd__dfxtp_1
XFILLER_1_74 VGND VGND VPWR VPWR sky130_fd_sc_hd__decap_12
XFILLER_29_59 VGND VGND VPWR VPWR sky130_fd_sc_hd__fill_2
XFILLER_28_124 VGND VGND VPWR VPWR sky130_fd_sc_hd__fill_2
XFILLER_19_102 VGND VGND VPWR VPWR sky130_fd_sc_hd__fill_1
XANTENNA_mux_left_track_31.mux_l1_in_0__A0 left_bottom_grid_pin_7_ VGND VGND VPWR
+ VPWR sky130_fd_sc_hd__diode_2
XPHY_100 VGND VPWR sky130_fd_sc_hd__tapvpwrvgnd_1
XPHY_188 VGND VPWR sky130_fd_sc_hd__tapvpwrvgnd_1
XFILLER_31_119 VGND VGND VPWR VPWR sky130_fd_sc_hd__decap_3
XPHY_177 VGND VPWR sky130_fd_sc_hd__tapvpwrvgnd_1
XPHY_166 VGND VPWR sky130_fd_sc_hd__tapvpwrvgnd_1
XPHY_155 VGND VPWR sky130_fd_sc_hd__tapvpwrvgnd_1
XFILLER_21_82 VGND VGND VPWR VPWR sky130_fd_sc_hd__fill_1
XPHY_144 VGND VPWR sky130_fd_sc_hd__tapvpwrvgnd_1
XPHY_133 VGND VPWR sky130_fd_sc_hd__tapvpwrvgnd_1
XPHY_122 VGND VPWR sky130_fd_sc_hd__tapvpwrvgnd_1
XPHY_2 VGND VGND VPWR VPWR sky130_fd_sc_hd__decap_3
XANTENNA_mux_left_track_3.mux_l2_in_1__A1 left_bottom_grid_pin_15_ VGND VGND VPWR
+ VPWR sky130_fd_sc_hd__diode_2
XPHY_111 VGND VPWR sky130_fd_sc_hd__tapvpwrvgnd_1
XFILLER_30_196 VGND VGND VPWR VPWR sky130_fd_sc_hd__decap_12
XFILLER_30_174 VGND VGND VPWR VPWR sky130_fd_sc_hd__decap_4
XFILLER_30_163 VGND VGND VPWR VPWR sky130_fd_sc_hd__fill_2
XANTENNA_mux_left_track_23.mux_l1_in_0__A1 chany_top_in[9] VGND VGND VPWR VPWR sky130_fd_sc_hd__diode_2
XFILLER_7_51 VGND VGND VPWR VPWR sky130_fd_sc_hd__decap_8
XFILLER_7_62 VGND VGND VPWR VPWR sky130_fd_sc_hd__decap_12
Xmux_left_track_5.sky130_fd_sc_hd__buf_4_0_ mux_left_track_5.mux_l3_in_0_/X VGND VGND
+ VPWR VPWR _070_/A sky130_fd_sc_hd__buf_4
XFILLER_16_93 VGND VGND VPWR VPWR sky130_fd_sc_hd__decap_6
XFILLER_12_141 VGND VGND VPWR VPWR sky130_fd_sc_hd__decap_12
XFILLER_8_178 VGND VGND VPWR VPWR sky130_fd_sc_hd__decap_12
XFILLER_12_29 VGND VGND VPWR VPWR sky130_fd_sc_hd__fill_2
XFILLER_26_200 VGND VGND VPWR VPWR sky130_fd_sc_hd__decap_12
Xmem_left_track_1.sky130_fd_sc_hd__dfxtp_1_2_ clkbuf_3_0_0_mem_left_track_1.prog_clk/X
+ mux_left_track_1.mux_l2_in_0_/S VGND VGND VPWR VPWR mux_left_track_1.mux_l3_in_0_/S
+ sky130_fd_sc_hd__dfxtp_1
XFILLER_5_159 VGND VGND VPWR VPWR sky130_fd_sc_hd__decap_12
XFILLER_27_81 VGND VGND VPWR VPWR sky130_fd_sc_hd__fill_2
XFILLER_23_39 VGND VGND VPWR VPWR sky130_fd_sc_hd__decap_12
XFILLER_2_129 VGND VGND VPWR VPWR sky130_fd_sc_hd__decap_12
Xmux_left_track_21.sky130_fd_sc_hd__buf_4_0_ mux_left_track_21.mux_l2_in_0_/X VGND
+ VGND VPWR VPWR _078_/A sky130_fd_sc_hd__buf_4
XFILLER_1_184 VGND VGND VPWR VPWR sky130_fd_sc_hd__decap_12
XFILLER_18_17 VGND VGND VPWR VPWR sky130_fd_sc_hd__fill_2
XFILLER_24_71 VGND VGND VPWR VPWR sky130_fd_sc_hd__decap_4
X_097_ _097_/A VGND VGND VPWR VPWR chany_top_out[9] sky130_fd_sc_hd__buf_2
XFILLER_20_29 VGND VGND VPWR VPWR sky130_fd_sc_hd__fill_2
XFILLER_1_86 VGND VGND VPWR VPWR sky130_fd_sc_hd__decap_12
XFILLER_28_147 VGND VGND VPWR VPWR sky130_fd_sc_hd__fill_2
Xmux_left_track_15.sky130_fd_sc_hd__buf_4_0_ mux_left_track_15.mux_l2_in_0_/X VGND
+ VGND VPWR VPWR _075_/A sky130_fd_sc_hd__buf_4