* NGSPICE file created from sb_2__2_.ext - technology: sky130A

* Black-box entry subcircuit for sky130_fd_sc_hd__decap_12 abstract view
.subckt sky130_fd_sc_hd__decap_12 VGND VNB VPB VPWR
.ends

* Black-box entry subcircuit for sky130_fd_sc_hd__decap_3 abstract view
.subckt sky130_fd_sc_hd__decap_3 VGND VNB VPB VPWR
.ends

* Black-box entry subcircuit for sky130_fd_sc_hd__dfxtp_1 abstract view
.subckt sky130_fd_sc_hd__dfxtp_1 CLK D VGND VNB VPB VPWR Q
.ends

* Black-box entry subcircuit for sky130_fd_sc_hd__decap_8 abstract view
.subckt sky130_fd_sc_hd__decap_8 VGND VNB VPB VPWR
.ends

* Black-box entry subcircuit for sky130_fd_sc_hd__mux2_1 abstract view
.subckt sky130_fd_sc_hd__mux2_1 A0 A1 S VGND VNB VPB VPWR X
.ends

* Black-box entry subcircuit for sky130_fd_sc_hd__fill_2 abstract view
.subckt sky130_fd_sc_hd__fill_2 VGND VNB VPB VPWR
.ends

* Black-box entry subcircuit for sky130_fd_sc_hd__conb_1 abstract view
.subckt sky130_fd_sc_hd__conb_1 VGND VNB VPB VPWR HI LO
.ends

* Black-box entry subcircuit for sky130_fd_sc_hd__diode_2 abstract view
.subckt sky130_fd_sc_hd__diode_2 DIODE VGND VNB VPB VPWR
.ends

* Black-box entry subcircuit for sky130_fd_sc_hd__tapvpwrvgnd_1 abstract view
.subckt sky130_fd_sc_hd__tapvpwrvgnd_1 VGND VPWR
.ends

* Black-box entry subcircuit for sky130_fd_sc_hd__buf_4 abstract view
.subckt sky130_fd_sc_hd__buf_4 A VGND VNB VPB VPWR X
.ends

* Black-box entry subcircuit for sky130_fd_sc_hd__decap_6 abstract view
.subckt sky130_fd_sc_hd__decap_6 VGND VNB VPB VPWR
.ends

* Black-box entry subcircuit for sky130_fd_sc_hd__clkbuf_1 abstract view
.subckt sky130_fd_sc_hd__clkbuf_1 A VGND VNB VPB VPWR X
.ends

* Black-box entry subcircuit for sky130_fd_sc_hd__decap_4 abstract view
.subckt sky130_fd_sc_hd__decap_4 VGND VNB VPB VPWR
.ends

* Black-box entry subcircuit for sky130_fd_sc_hd__fill_1 abstract view
.subckt sky130_fd_sc_hd__fill_1 VGND VNB VPB VPWR
.ends

* Black-box entry subcircuit for sky130_fd_sc_hd__buf_8 abstract view
.subckt sky130_fd_sc_hd__buf_8 A VGND VNB VPB VPWR X
.ends

* Black-box entry subcircuit for sky130_fd_sc_hd__buf_2 abstract view
.subckt sky130_fd_sc_hd__buf_2 A VGND VNB VPB VPWR X
.ends

* Black-box entry subcircuit for sky130_fd_sc_hd__clkbuf_16 abstract view
.subckt sky130_fd_sc_hd__clkbuf_16 A VGND VNB VPB VPWR X
.ends

.subckt sb_2__2_ SC_IN_BOT SC_OUT_BOT bottom_left_grid_pin_42_ bottom_left_grid_pin_43_
+ bottom_left_grid_pin_44_ bottom_left_grid_pin_45_ bottom_left_grid_pin_46_ bottom_left_grid_pin_47_
+ bottom_left_grid_pin_48_ bottom_left_grid_pin_49_ bottom_right_grid_pin_1_ ccff_head
+ ccff_tail chanx_left_in[0] chanx_left_in[10] chanx_left_in[11] chanx_left_in[12]
+ chanx_left_in[13] chanx_left_in[14] chanx_left_in[15] chanx_left_in[16] chanx_left_in[17]
+ chanx_left_in[18] chanx_left_in[19] chanx_left_in[1] chanx_left_in[2] chanx_left_in[3]
+ chanx_left_in[4] chanx_left_in[5] chanx_left_in[6] chanx_left_in[7] chanx_left_in[8]
+ chanx_left_in[9] chanx_left_out[0] chanx_left_out[10] chanx_left_out[11] chanx_left_out[12]
+ chanx_left_out[13] chanx_left_out[14] chanx_left_out[15] chanx_left_out[16] chanx_left_out[17]
+ chanx_left_out[18] chanx_left_out[19] chanx_left_out[1] chanx_left_out[2] chanx_left_out[3]
+ chanx_left_out[4] chanx_left_out[5] chanx_left_out[6] chanx_left_out[7] chanx_left_out[8]
+ chanx_left_out[9] chany_bottom_in[0] chany_bottom_in[10] chany_bottom_in[11] chany_bottom_in[12]
+ chany_bottom_in[13] chany_bottom_in[14] chany_bottom_in[15] chany_bottom_in[16]
+ chany_bottom_in[17] chany_bottom_in[18] chany_bottom_in[19] chany_bottom_in[1] chany_bottom_in[2]
+ chany_bottom_in[3] chany_bottom_in[4] chany_bottom_in[5] chany_bottom_in[6] chany_bottom_in[7]
+ chany_bottom_in[8] chany_bottom_in[9] chany_bottom_out[0] chany_bottom_out[10] chany_bottom_out[11]
+ chany_bottom_out[12] chany_bottom_out[13] chany_bottom_out[14] chany_bottom_out[15]
+ chany_bottom_out[16] chany_bottom_out[17] chany_bottom_out[18] chany_bottom_out[19]
+ chany_bottom_out[1] chany_bottom_out[2] chany_bottom_out[3] chany_bottom_out[4]
+ chany_bottom_out[5] chany_bottom_out[6] chany_bottom_out[7] chany_bottom_out[8]
+ chany_bottom_out[9] left_bottom_grid_pin_34_ left_bottom_grid_pin_35_ left_bottom_grid_pin_36_
+ left_bottom_grid_pin_37_ left_bottom_grid_pin_38_ left_bottom_grid_pin_39_ left_bottom_grid_pin_40_
+ left_bottom_grid_pin_41_ left_top_grid_pin_1_ prog_clk_0_S_in VPWR VGND
XFILLER_22_166 VGND VGND VPWR VPWR sky130_fd_sc_hd__decap_12
XFILLER_26_96 VGND VGND VPWR VPWR sky130_fd_sc_hd__decap_3
Xmem_left_track_17.sky130_fd_sc_hd__dfxtp_1_0_ clkbuf_3_2_0_mem_bottom_track_1.prog_clk/X
+ mux_left_track_15.mux_l2_in_0_/S VGND VGND VPWR VPWR mux_left_track_17.mux_l1_in_0_/S
+ sky130_fd_sc_hd__dfxtp_1
XFILLER_9_126 VGND VGND VPWR VPWR sky130_fd_sc_hd__decap_8
Xmux_bottom_track_3.mux_l1_in_1_ bottom_left_grid_pin_48_ bottom_left_grid_pin_46_
+ mux_bottom_track_3.mux_l1_in_0_/S VGND VGND VPWR VPWR mux_bottom_track_3.mux_l1_in_1_/X
+ sky130_fd_sc_hd__mux2_1
XFILLER_12_43 VGND VGND VPWR VPWR sky130_fd_sc_hd__decap_3
XFILLER_12_32 VGND VGND VPWR VPWR sky130_fd_sc_hd__fill_2
X_062_ VGND VGND VPWR VPWR _062_/HI _062_/LO sky130_fd_sc_hd__conb_1
XFILLER_9_33 VGND VGND VPWR VPWR sky130_fd_sc_hd__decap_3
XFILLER_2_187 VGND VGND VPWR VPWR sky130_fd_sc_hd__decap_12
X_045_ VGND VGND VPWR VPWR _045_/HI _045_/LO sky130_fd_sc_hd__conb_1
Xmux_bottom_track_17.mux_l1_in_0_ chanx_left_in[9] bottom_left_grid_pin_45_ mux_bottom_track_17.mux_l1_in_0_/S
+ VGND VGND VPWR VPWR mux_bottom_track_17.mux_l1_in_0_/X sky130_fd_sc_hd__mux2_1
XFILLER_20_10 VGND VGND VPWR VPWR sky130_fd_sc_hd__fill_2
Xmux_bottom_track_29.mux_l2_in_0_ _068_/HI mux_bottom_track_29.mux_l1_in_0_/X mux_bottom_track_29.mux_l2_in_0_/S
+ VGND VGND VPWR VPWR mux_bottom_track_29.mux_l2_in_0_/X sky130_fd_sc_hd__mux2_1
XANTENNA_5 chany_bottom_in[9] VGND VGND VPWR VPWR sky130_fd_sc_hd__diode_2
XFILLER_13_3 VGND VGND VPWR VPWR sky130_fd_sc_hd__fill_2
XFILLER_31_53 VGND VGND VPWR VPWR sky130_fd_sc_hd__decap_8
XFILLER_25_120 VGND VGND VPWR VPWR sky130_fd_sc_hd__fill_2
XPHY_181 VGND VPWR sky130_fd_sc_hd__tapvpwrvgnd_1
XFILLER_31_123 VGND VGND VPWR VPWR sky130_fd_sc_hd__decap_12
XFILLER_31_86 VGND VGND VPWR VPWR sky130_fd_sc_hd__decap_12
XPHY_170 VGND VPWR sky130_fd_sc_hd__tapvpwrvgnd_1
Xmux_bottom_track_3.sky130_fd_sc_hd__buf_4_0_ mux_bottom_track_3.mux_l3_in_0_/X VGND
+ VGND VPWR VPWR _109_/A sky130_fd_sc_hd__buf_4
XFILLER_22_178 VGND VGND VPWR VPWR sky130_fd_sc_hd__decap_12
XFILLER_26_20 VGND VGND VPWR VPWR sky130_fd_sc_hd__decap_8
XFILLER_13_123 VGND VGND VPWR VPWR sky130_fd_sc_hd__decap_12
XFILLER_9_138 VGND VGND VPWR VPWR sky130_fd_sc_hd__decap_6
Xmux_bottom_track_3.mux_l1_in_0_ bottom_left_grid_pin_44_ bottom_left_grid_pin_42_
+ mux_bottom_track_3.mux_l1_in_0_/S VGND VGND VPWR VPWR mux_bottom_track_3.mux_l1_in_0_/X
+ sky130_fd_sc_hd__mux2_1
XFILLER_3_24 VGND VGND VPWR VPWR sky130_fd_sc_hd__fill_2
Xclkbuf_1_0_0_mem_bottom_track_1.prog_clk clkbuf_0_mem_bottom_track_1.prog_clk/X VGND
+ VGND VPWR VPWR clkbuf_2_1_0_mem_bottom_track_1.prog_clk/A sky130_fd_sc_hd__clkbuf_1
XFILLER_8_171 VGND VGND VPWR VPWR sky130_fd_sc_hd__decap_12
XFILLER_18_215 VGND VGND VPWR VPWR sky130_fd_sc_hd__decap_4
XFILLER_2_111 VGND VGND VPWR VPWR sky130_fd_sc_hd__fill_2
XFILLER_2_199 VGND VGND VPWR VPWR sky130_fd_sc_hd__decap_12
X_061_ VGND VGND VPWR VPWR _061_/HI _061_/LO sky130_fd_sc_hd__conb_1
Xmux_left_track_9.sky130_fd_sc_hd__buf_4_0_ mux_left_track_9.mux_l2_in_0_/X VGND VGND
+ VPWR VPWR _086_/A sky130_fd_sc_hd__buf_4
X_044_ VGND VGND VPWR VPWR _044_/HI _044_/LO sky130_fd_sc_hd__conb_1
XFILLER_18_65 VGND VGND VPWR VPWR sky130_fd_sc_hd__decap_6
XFILLER_22_8 VGND VGND VPWR VPWR sky130_fd_sc_hd__fill_2
Xmem_bottom_track_25.sky130_fd_sc_hd__dfxtp_1_1_ clkbuf_3_5_0_mem_bottom_track_1.prog_clk/X
+ mux_bottom_track_25.mux_l1_in_1_/S VGND VGND VPWR VPWR mux_bottom_track_25.mux_l2_in_0_/S
+ sky130_fd_sc_hd__dfxtp_1
Xmux_left_track_31.sky130_fd_sc_hd__buf_4_0_ mux_left_track_31.mux_l2_in_0_/X VGND
+ VGND VPWR VPWR _075_/A sky130_fd_sc_hd__buf_4
XFILLER_28_140 VGND VGND VPWR VPWR sky130_fd_sc_hd__decap_12
Xmem_left_track_35.sky130_fd_sc_hd__dfxtp_1_1_ clkbuf_3_3_0_mem_bottom_track_1.prog_clk/X
+ mux_left_track_35.mux_l1_in_0_/S VGND VGND VPWR VPWR mux_left_track_35.mux_l2_in_0_/S
+ sky130_fd_sc_hd__dfxtp_1
XFILLER_19_184 VGND VGND VPWR VPWR sky130_fd_sc_hd__decap_12
XFILLER_15_22 VGND VGND VPWR VPWR sky130_fd_sc_hd__decap_8
XFILLER_1_209 VGND VGND VPWR VPWR sky130_fd_sc_hd__decap_8
XPHY_182 VGND VPWR sky130_fd_sc_hd__tapvpwrvgnd_1
XFILLER_31_135 VGND VGND VPWR VPWR sky130_fd_sc_hd__decap_12
XFILLER_31_98 VGND VGND VPWR VPWR sky130_fd_sc_hd__decap_12
XPHY_171 VGND VPWR sky130_fd_sc_hd__tapvpwrvgnd_1
XPHY_160 VGND VPWR sky130_fd_sc_hd__tapvpwrvgnd_1
XFILLER_16_154 VGND VGND VPWR VPWR sky130_fd_sc_hd__decap_12
XFILLER_15_88 VGND VGND VPWR VPWR sky130_fd_sc_hd__fill_2
XFILLER_30_190 VGND VGND VPWR VPWR sky130_fd_sc_hd__decap_12
Xmux_left_track_25.sky130_fd_sc_hd__buf_4_0_ mux_left_track_25.mux_l2_in_0_/X VGND
+ VGND VPWR VPWR _078_/A sky130_fd_sc_hd__buf_4
Xmem_bottom_track_3.sky130_fd_sc_hd__dfxtp_1_2_ clkbuf_3_1_0_mem_bottom_track_1.prog_clk/X
+ mux_bottom_track_3.mux_l2_in_0_/S VGND VGND VPWR VPWR mux_bottom_track_3.mux_l3_in_0_/S
+ sky130_fd_sc_hd__dfxtp_1
XFILLER_26_43 VGND VGND VPWR VPWR sky130_fd_sc_hd__fill_2
XFILLER_13_135 VGND VGND VPWR VPWR sky130_fd_sc_hd__decap_12
XFILLER_13_113 VGND VGND VPWR VPWR sky130_fd_sc_hd__decap_8
Xmux_bottom_track_29.mux_l1_in_0_ chanx_left_in[15] bottom_left_grid_pin_43_ mux_bottom_track_29.mux_l1_in_0_/S
+ VGND VGND VPWR VPWR mux_bottom_track_29.mux_l1_in_0_/X sky130_fd_sc_hd__mux2_1
XFILLER_12_190 VGND VGND VPWR VPWR sky130_fd_sc_hd__decap_12
Xclkbuf_3_4_0_mem_bottom_track_1.prog_clk clkbuf_3_5_0_mem_bottom_track_1.prog_clk/A
+ VGND VGND VPWR VPWR clkbuf_3_4_0_mem_bottom_track_1.prog_clk/X sky130_fd_sc_hd__clkbuf_1
XFILLER_8_183 VGND VGND VPWR VPWR sky130_fd_sc_hd__decap_12
XFILLER_12_89 VGND VGND VPWR VPWR sky130_fd_sc_hd__decap_3
XFILLER_12_78 VGND VGND VPWR VPWR sky130_fd_sc_hd__decap_4
XFILLER_6_109 VGND VGND VPWR VPWR sky130_fd_sc_hd__fill_2
Xmux_left_track_19.sky130_fd_sc_hd__buf_4_0_ mux_left_track_19.mux_l2_in_0_/X VGND
+ VGND VPWR VPWR _081_/A sky130_fd_sc_hd__buf_4
Xmux_left_track_7.mux_l3_in_0_ mux_left_track_7.mux_l2_in_1_/X mux_left_track_7.mux_l2_in_0_/X
+ mux_left_track_7.mux_l3_in_0_/S VGND VGND VPWR VPWR mux_left_track_7.mux_l3_in_0_/X
+ sky130_fd_sc_hd__mux2_1
XFILLER_5_120 VGND VGND VPWR VPWR sky130_fd_sc_hd__fill_2
XFILLER_24_219 VGND VGND VPWR VPWR sky130_fd_sc_hd__fill_1
XFILLER_23_33 VGND VGND VPWR VPWR sky130_fd_sc_hd__fill_2
X_060_ VGND VGND VPWR VPWR _060_/HI _060_/LO sky130_fd_sc_hd__conb_1
X_043_ VGND VGND VPWR VPWR _043_/HI _043_/LO sky130_fd_sc_hd__conb_1
Xmux_left_track_7.mux_l2_in_1_ _056_/HI left_bottom_grid_pin_40_ mux_left_track_7.mux_l2_in_1_/S
+ VGND VGND VPWR VPWR mux_left_track_7.mux_l2_in_1_/X sky130_fd_sc_hd__mux2_1
Xmem_bottom_track_25.sky130_fd_sc_hd__dfxtp_1_0_ clkbuf_3_5_0_mem_bottom_track_1.prog_clk/X
+ mux_bottom_track_23.mux_l2_in_0_/S VGND VGND VPWR VPWR mux_bottom_track_25.mux_l1_in_1_/S
+ sky130_fd_sc_hd__dfxtp_1
XFILLER_29_76 VGND VGND VPWR VPWR sky130_fd_sc_hd__decap_12
XFILLER_28_152 VGND VGND VPWR VPWR sky130_fd_sc_hd__fill_1
Xmem_left_track_35.sky130_fd_sc_hd__dfxtp_1_0_ clkbuf_3_3_0_mem_bottom_track_1.prog_clk/X
+ mux_left_track_33.mux_l2_in_0_/S VGND VGND VPWR VPWR mux_left_track_35.mux_l1_in_0_/S
+ sky130_fd_sc_hd__dfxtp_1
XFILLER_19_196 VGND VGND VPWR VPWR sky130_fd_sc_hd__decap_12
XFILLER_31_11 VGND VGND VPWR VPWR sky130_fd_sc_hd__fill_2
XFILLER_16_166 VGND VGND VPWR VPWR sky130_fd_sc_hd__decap_12
XPHY_183 VGND VPWR sky130_fd_sc_hd__tapvpwrvgnd_1
XFILLER_31_147 VGND VGND VPWR VPWR sky130_fd_sc_hd__decap_12
XPHY_172 VGND VPWR sky130_fd_sc_hd__tapvpwrvgnd_1
XPHY_161 VGND VPWR sky130_fd_sc_hd__tapvpwrvgnd_1
XPHY_150 VGND VPWR sky130_fd_sc_hd__tapvpwrvgnd_1
XFILLER_13_147 VGND VGND VPWR VPWR sky130_fd_sc_hd__decap_12
Xmem_bottom_track_3.sky130_fd_sc_hd__dfxtp_1_1_ clkbuf_3_0_0_mem_bottom_track_1.prog_clk/X
+ mux_bottom_track_3.mux_l1_in_0_/S VGND VGND VPWR VPWR mux_bottom_track_3.mux_l2_in_0_/S
+ sky130_fd_sc_hd__dfxtp_1
XFILLER_8_195 VGND VGND VPWR VPWR sky130_fd_sc_hd__decap_12
XFILLER_12_24 VGND VGND VPWR VPWR sky130_fd_sc_hd__fill_2
XFILLER_5_7 VGND VGND VPWR VPWR sky130_fd_sc_hd__fill_1
Xmux_left_track_15.mux_l2_in_0_ _041_/HI mux_left_track_15.mux_l1_in_0_/X mux_left_track_15.mux_l2_in_0_/S
+ VGND VGND VPWR VPWR mux_left_track_15.mux_l2_in_0_/X sky130_fd_sc_hd__mux2_1
Xprog_clk_0_FTB00 prog_clk_0_S_in VGND VGND VPWR VPWR prog_clk_0_FTB00/X sky130_fd_sc_hd__buf_8
XFILLER_0_27 VGND VGND VPWR VPWR sky130_fd_sc_hd__decap_4
XFILLER_29_3 VGND VGND VPWR VPWR sky130_fd_sc_hd__fill_2
X_042_ VGND VGND VPWR VPWR _042_/HI _042_/LO sky130_fd_sc_hd__conb_1
Xmux_left_track_7.mux_l2_in_0_ mux_left_track_7.mux_l1_in_1_/X mux_left_track_7.mux_l1_in_0_/X
+ mux_left_track_7.mux_l2_in_1_/S VGND VGND VPWR VPWR mux_left_track_7.mux_l2_in_0_/X
+ sky130_fd_sc_hd__mux2_1
XFILLER_1_70 VGND VGND VPWR VPWR sky130_fd_sc_hd__fill_2
XFILLER_4_219 VGND VGND VPWR VPWR sky130_fd_sc_hd__fill_1
XFILLER_29_88 VGND VGND VPWR VPWR sky130_fd_sc_hd__decap_12
XFILLER_6_48 VGND VGND VPWR VPWR sky130_fd_sc_hd__fill_2
XFILLER_25_123 VGND VGND VPWR VPWR sky130_fd_sc_hd__decap_12
XFILLER_25_112 VGND VGND VPWR VPWR sky130_fd_sc_hd__decap_8
Xmux_left_track_7.mux_l1_in_1_ left_bottom_grid_pin_38_ left_bottom_grid_pin_36_ mux_left_track_7.mux_l1_in_0_/S
+ VGND VGND VPWR VPWR mux_left_track_7.mux_l1_in_1_/X sky130_fd_sc_hd__mux2_1
XPHY_184 VGND VPWR sky130_fd_sc_hd__tapvpwrvgnd_1
XFILLER_31_159 VGND VGND VPWR VPWR sky130_fd_sc_hd__decap_12
XPHY_173 VGND VPWR sky130_fd_sc_hd__tapvpwrvgnd_1
XPHY_162 VGND VPWR sky130_fd_sc_hd__tapvpwrvgnd_1
XPHY_151 VGND VPWR sky130_fd_sc_hd__tapvpwrvgnd_1
XPHY_140 VGND VPWR sky130_fd_sc_hd__tapvpwrvgnd_1
XFILLER_16_178 VGND VGND VPWR VPWR sky130_fd_sc_hd__decap_12
XFILLER_11_3 VGND VGND VPWR VPWR sky130_fd_sc_hd__decap_4
XFILLER_26_12 VGND VGND VPWR VPWR sky130_fd_sc_hd__fill_2
Xmem_bottom_track_3.sky130_fd_sc_hd__dfxtp_1_0_ clkbuf_3_1_0_mem_bottom_track_1.prog_clk/X
+ mux_bottom_track_1.mux_l3_in_0_/S VGND VGND VPWR VPWR mux_bottom_track_3.mux_l1_in_0_/S
+ sky130_fd_sc_hd__dfxtp_1
XFILLER_13_159 VGND VGND VPWR VPWR sky130_fd_sc_hd__decap_12
XFILLER_5_177 VGND VGND VPWR VPWR sky130_fd_sc_hd__decap_6
XFILLER_5_188 VGND VGND VPWR VPWR sky130_fd_sc_hd__decap_12
XFILLER_23_57 VGND VGND VPWR VPWR sky130_fd_sc_hd__decap_4
Xmem_bottom_track_9.sky130_fd_sc_hd__dfxtp_1_1_ clkbuf_3_4_0_mem_bottom_track_1.prog_clk/X
+ mux_bottom_track_9.mux_l1_in_0_/S VGND VGND VPWR VPWR mux_bottom_track_9.mux_l2_in_0_/S
+ sky130_fd_sc_hd__dfxtp_1
XFILLER_9_59 VGND VGND VPWR VPWR sky130_fd_sc_hd__fill_2
XFILLER_1_180 VGND VGND VPWR VPWR sky130_fd_sc_hd__decap_3
XFILLER_20_202 VGND VGND VPWR VPWR sky130_fd_sc_hd__decap_12
Xmux_left_track_15.mux_l1_in_0_ left_bottom_grid_pin_36_ chany_bottom_in[6] mux_left_track_15.mux_l1_in_0_/S
+ VGND VGND VPWR VPWR mux_left_track_15.mux_l1_in_0_/X sky130_fd_sc_hd__mux2_1
XFILLER_18_46 VGND VGND VPWR VPWR sky130_fd_sc_hd__decap_3
XFILLER_18_35 VGND VGND VPWR VPWR sky130_fd_sc_hd__fill_2
X_041_ VGND VGND VPWR VPWR _041_/HI _041_/LO sky130_fd_sc_hd__conb_1
Xmux_left_track_27.mux_l2_in_0_ _047_/HI mux_left_track_27.mux_l1_in_0_/X mux_left_track_27.mux_l2_in_0_/S
+ VGND VGND VPWR VPWR mux_left_track_27.mux_l2_in_0_/X sky130_fd_sc_hd__mux2_1
X_110_ _110_/A VGND VGND VPWR VPWR chany_bottom_out[0] sky130_fd_sc_hd__buf_2
XFILLER_28_154 VGND VGND VPWR VPWR sky130_fd_sc_hd__decap_12
XFILLER_19_121 VGND VGND VPWR VPWR sky130_fd_sc_hd__fill_1
XFILLER_10_80 VGND VGND VPWR VPWR sky130_fd_sc_hd__decap_12
XFILLER_25_135 VGND VGND VPWR VPWR sky130_fd_sc_hd__decap_12
Xmux_left_track_7.mux_l1_in_0_ left_bottom_grid_pin_34_ chany_bottom_in[2] mux_left_track_7.mux_l1_in_0_/S
+ VGND VGND VPWR VPWR mux_left_track_7.mux_l1_in_0_/X sky130_fd_sc_hd__mux2_1
Xmux_bottom_track_11.sky130_fd_sc_hd__buf_4_0_ mux_bottom_track_11.mux_l2_in_0_/X
+ VGND VGND VPWR VPWR _105_/A sky130_fd_sc_hd__buf_4
XPHY_185 VGND VPWR sky130_fd_sc_hd__tapvpwrvgnd_1
XPHY_174 VGND VPWR sky130_fd_sc_hd__tapvpwrvgnd_1
XPHY_163 VGND VPWR sky130_fd_sc_hd__tapvpwrvgnd_1
XFILLER_24_190 VGND VGND VPWR VPWR sky130_fd_sc_hd__decap_12
XPHY_152 VGND VPWR sky130_fd_sc_hd__tapvpwrvgnd_1
XPHY_141 VGND VPWR sky130_fd_sc_hd__tapvpwrvgnd_1
XPHY_130 VGND VPWR sky130_fd_sc_hd__tapvpwrvgnd_1
XFILLER_22_105 VGND VGND VPWR VPWR sky130_fd_sc_hd__decap_12
XFILLER_15_190 VGND VGND VPWR VPWR sky130_fd_sc_hd__decap_12
XFILLER_26_35 VGND VGND VPWR VPWR sky130_fd_sc_hd__decap_8
XFILLER_21_171 VGND VGND VPWR VPWR sky130_fd_sc_hd__decap_12
XFILLER_27_208 VGND VGND VPWR VPWR sky130_fd_sc_hd__decap_12
XFILLER_16_90 VGND VGND VPWR VPWR sky130_fd_sc_hd__fill_2
Xmem_bottom_track_11.sky130_fd_sc_hd__dfxtp_1_1_ clkbuf_3_5_0_mem_bottom_track_1.prog_clk/X
+ mux_bottom_track_11.mux_l1_in_0_/S VGND VGND VPWR VPWR mux_bottom_track_11.mux_l2_in_0_/S
+ sky130_fd_sc_hd__dfxtp_1
XFILLER_18_219 VGND VGND VPWR VPWR sky130_fd_sc_hd__fill_1
XFILLER_32_211 VGND VGND VPWR VPWR sky130_fd_sc_hd__decap_6
Xmem_left_track_21.sky130_fd_sc_hd__dfxtp_1_1_ clkbuf_3_2_0_mem_bottom_track_1.prog_clk/X
+ mux_left_track_21.mux_l1_in_0_/S VGND VGND VPWR VPWR mux_left_track_21.mux_l2_in_0_/S
+ sky130_fd_sc_hd__dfxtp_1
XFILLER_5_123 VGND VGND VPWR VPWR sky130_fd_sc_hd__fill_1
XFILLER_4_60 VGND VGND VPWR VPWR sky130_fd_sc_hd__fill_2
XFILLER_4_93 VGND VGND VPWR VPWR sky130_fd_sc_hd__decap_3
XFILLER_3_6 VGND VGND VPWR VPWR sky130_fd_sc_hd__fill_2
Xmem_bottom_track_9.sky130_fd_sc_hd__dfxtp_1_0_ clkbuf_3_4_0_mem_bottom_track_1.prog_clk/X
+ mux_bottom_track_7.mux_l3_in_0_/S VGND VGND VPWR VPWR mux_bottom_track_9.mux_l1_in_0_/S
+ sky130_fd_sc_hd__dfxtp_1
XFILLER_18_25 VGND VGND VPWR VPWR sky130_fd_sc_hd__decap_6
X_040_ VGND VGND VPWR VPWR _040_/HI _040_/LO sky130_fd_sc_hd__conb_1
XFILLER_1_3 VGND VGND VPWR VPWR sky130_fd_sc_hd__fill_1
XFILLER_28_166 VGND VGND VPWR VPWR sky130_fd_sc_hd__decap_12
XFILLER_20_48 VGND VGND VPWR VPWR sky130_fd_sc_hd__fill_2
XFILLER_20_26 VGND VGND VPWR VPWR sky130_fd_sc_hd__decap_4
XFILLER_25_147 VGND VGND VPWR VPWR sky130_fd_sc_hd__decap_12
XFILLER_15_59 VGND VGND VPWR VPWR sky130_fd_sc_hd__fill_2
Xmux_left_track_27.mux_l1_in_0_ left_bottom_grid_pin_34_ chany_bottom_in[12] mux_left_track_27.mux_l1_in_0_/S
+ VGND VGND VPWR VPWR mux_left_track_27.mux_l1_in_0_/X sky130_fd_sc_hd__mux2_1
XPHY_186 VGND VPWR sky130_fd_sc_hd__tapvpwrvgnd_1
XPHY_175 VGND VPWR sky130_fd_sc_hd__tapvpwrvgnd_1
Xmux_left_track_39.mux_l2_in_0_ _054_/HI mux_left_track_39.mux_l1_in_0_/X ccff_tail
+ VGND VGND VPWR VPWR mux_left_track_39.mux_l2_in_0_/X sky130_fd_sc_hd__mux2_1
XPHY_164 VGND VPWR sky130_fd_sc_hd__tapvpwrvgnd_1
XPHY_153 VGND VPWR sky130_fd_sc_hd__tapvpwrvgnd_1
XPHY_142 VGND VPWR sky130_fd_sc_hd__tapvpwrvgnd_1
XPHY_131 VGND VPWR sky130_fd_sc_hd__tapvpwrvgnd_1
XPHY_120 VGND VPWR sky130_fd_sc_hd__tapvpwrvgnd_1
XFILLER_22_117 VGND VGND VPWR VPWR sky130_fd_sc_hd__decap_12
XPHY_0 VGND VGND VPWR VPWR sky130_fd_sc_hd__decap_3
XFILLER_26_69 VGND VGND VPWR VPWR sky130_fd_sc_hd__fill_2
Xmux_bottom_track_13.mux_l2_in_0_ _060_/HI mux_bottom_track_13.mux_l1_in_0_/X mux_bottom_track_13.mux_l2_in_0_/S
+ VGND VGND VPWR VPWR mux_bottom_track_13.mux_l2_in_0_/X sky130_fd_sc_hd__mux2_1
Xmem_bottom_track_11.sky130_fd_sc_hd__dfxtp_1_0_ clkbuf_3_4_0_mem_bottom_track_1.prog_clk/X
+ mux_bottom_track_9.mux_l2_in_0_/S VGND VGND VPWR VPWR mux_bottom_track_11.mux_l1_in_0_/S
+ sky130_fd_sc_hd__dfxtp_1
XFILLER_8_154 VGND VGND VPWR VPWR sky130_fd_sc_hd__fill_2
XFILLER_10_109 VGND VGND VPWR VPWR sky130_fd_sc_hd__fill_2
Xmem_left_track_21.sky130_fd_sc_hd__dfxtp_1_0_ clkbuf_3_2_0_mem_bottom_track_1.prog_clk/X
+ mux_left_track_19.mux_l2_in_0_/S VGND VGND VPWR VPWR mux_left_track_21.mux_l1_in_0_/S
+ sky130_fd_sc_hd__dfxtp_1
Xmux_bottom_track_27.sky130_fd_sc_hd__buf_4_0_ mux_bottom_track_27.mux_l2_in_0_/X
+ VGND VGND VPWR VPWR _097_/A sky130_fd_sc_hd__buf_4
XFILLER_2_149 VGND VGND VPWR VPWR sky130_fd_sc_hd__decap_4
XFILLER_20_215 VGND VGND VPWR VPWR sky130_fd_sc_hd__decap_4
Xmem_bottom_track_17.sky130_fd_sc_hd__dfxtp_1_1_ clkbuf_3_4_0_mem_bottom_track_1.prog_clk/X
+ mux_bottom_track_17.mux_l1_in_0_/S VGND VGND VPWR VPWR mux_bottom_track_17.mux_l2_in_0_/S
+ sky130_fd_sc_hd__dfxtp_1
XFILLER_7_208 VGND VGND VPWR VPWR sky130_fd_sc_hd__decap_12
XFILLER_27_3 VGND VGND VPWR VPWR sky130_fd_sc_hd__fill_2
X_099_ _099_/A VGND VGND VPWR VPWR chany_bottom_out[11] sky130_fd_sc_hd__buf_2
XFILLER_29_25 VGND VGND VPWR VPWR sky130_fd_sc_hd__decap_12
Xmem_left_track_27.sky130_fd_sc_hd__dfxtp_1_1_ clkbuf_3_6_0_mem_bottom_track_1.prog_clk/X
+ mux_left_track_27.mux_l1_in_0_/S VGND VGND VPWR VPWR mux_left_track_27.mux_l2_in_0_/S
+ sky130_fd_sc_hd__dfxtp_1
XFILLER_28_178 VGND VGND VPWR VPWR sky130_fd_sc_hd__decap_12
XFILLER_19_123 VGND VGND VPWR VPWR sky130_fd_sc_hd__decap_12
XFILLER_19_91 VGND VGND VPWR VPWR sky130_fd_sc_hd__fill_2
Xclkbuf_3_3_0_mem_bottom_track_1.prog_clk clkbuf_3_3_0_mem_bottom_track_1.prog_clk/A
+ VGND VGND VPWR VPWR clkbuf_3_3_0_mem_bottom_track_1.prog_clk/X sky130_fd_sc_hd__clkbuf_1
XFILLER_6_18 VGND VGND VPWR VPWR sky130_fd_sc_hd__fill_2
XFILLER_6_29 VGND VGND VPWR VPWR sky130_fd_sc_hd__fill_2
XFILLER_25_159 VGND VGND VPWR VPWR sky130_fd_sc_hd__decap_12
XPHY_187 VGND VPWR sky130_fd_sc_hd__tapvpwrvgnd_1
XPHY_176 VGND VPWR sky130_fd_sc_hd__tapvpwrvgnd_1
XPHY_165 VGND VPWR sky130_fd_sc_hd__tapvpwrvgnd_1
XPHY_154 VGND VPWR sky130_fd_sc_hd__tapvpwrvgnd_1
XPHY_143 VGND VPWR sky130_fd_sc_hd__tapvpwrvgnd_1
XPHY_132 VGND VPWR sky130_fd_sc_hd__tapvpwrvgnd_1
XPHY_121 VGND VPWR sky130_fd_sc_hd__tapvpwrvgnd_1
XPHY_110 VGND VPWR sky130_fd_sc_hd__tapvpwrvgnd_1
XFILLER_22_129 VGND VGND VPWR VPWR sky130_fd_sc_hd__decap_12
XPHY_1 VGND VGND VPWR VPWR sky130_fd_sc_hd__decap_3
XFILLER_21_184 VGND VGND VPWR VPWR sky130_fd_sc_hd__decap_12
XFILLER_16_70 VGND VGND VPWR VPWR sky130_fd_sc_hd__decap_4
XFILLER_8_100 VGND VGND VPWR VPWR sky130_fd_sc_hd__fill_1
XFILLER_8_122 VGND VGND VPWR VPWR sky130_fd_sc_hd__fill_2
XFILLER_8_144 VGND VGND VPWR VPWR sky130_fd_sc_hd__fill_2
Xmux_left_track_39.mux_l1_in_0_ left_bottom_grid_pin_40_ chany_bottom_in[18] mux_left_track_39.mux_l1_in_0_/S
+ VGND VGND VPWR VPWR mux_left_track_39.mux_l1_in_0_/X sky130_fd_sc_hd__mux2_1
XFILLER_5_103 VGND VGND VPWR VPWR sky130_fd_sc_hd__fill_2
XFILLER_5_114 VGND VGND VPWR VPWR sky130_fd_sc_hd__fill_2
XFILLER_5_147 VGND VGND VPWR VPWR sky130_fd_sc_hd__decap_3
XFILLER_27_80 VGND VGND VPWR VPWR sky130_fd_sc_hd__fill_1
XFILLER_23_16 VGND VGND VPWR VPWR sky130_fd_sc_hd__fill_1
XFILLER_14_202 VGND VGND VPWR VPWR sky130_fd_sc_hd__decap_12
Xmux_bottom_track_13.mux_l1_in_0_ chanx_left_in[7] bottom_left_grid_pin_43_ mux_bottom_track_13.mux_l1_in_0_/S
+ VGND VGND VPWR VPWR mux_bottom_track_13.mux_l1_in_0_/X sky130_fd_sc_hd__mux2_1
XFILLER_9_18 VGND VGND VPWR VPWR sky130_fd_sc_hd__decap_3
XFILLER_13_60 VGND VGND VPWR VPWR sky130_fd_sc_hd__fill_1
XFILLER_1_150 VGND VGND VPWR VPWR sky130_fd_sc_hd__fill_2
Xmux_bottom_track_25.mux_l2_in_0_ mux_bottom_track_25.mux_l1_in_1_/X mux_bottom_track_25.mux_l1_in_0_/X
+ mux_bottom_track_25.mux_l2_in_0_/S VGND VGND VPWR VPWR mux_bottom_track_25.mux_l2_in_0_/X
+ sky130_fd_sc_hd__mux2_1
Xmem_bottom_track_17.sky130_fd_sc_hd__dfxtp_1_0_ clkbuf_3_1_0_mem_bottom_track_1.prog_clk/X
+ mux_bottom_track_15.mux_l2_in_0_/S VGND VGND VPWR VPWR mux_bottom_track_17.mux_l1_in_0_/S
+ sky130_fd_sc_hd__dfxtp_1
X_098_ _098_/A VGND VGND VPWR VPWR chany_bottom_out[12] sky130_fd_sc_hd__buf_2
Xmem_left_track_27.sky130_fd_sc_hd__dfxtp_1_0_ clkbuf_3_6_0_mem_bottom_track_1.prog_clk/X
+ mux_left_track_25.mux_l2_in_0_/S VGND VGND VPWR VPWR mux_left_track_27.mux_l1_in_0_/S
+ sky130_fd_sc_hd__dfxtp_1
XFILLER_1_30 VGND VGND VPWR VPWR sky130_fd_sc_hd__fill_1
XFILLER_29_37 VGND VGND VPWR VPWR sky130_fd_sc_hd__decap_12
Xmux_bottom_track_9.mux_l2_in_0_ _037_/HI mux_bottom_track_9.mux_l1_in_0_/X mux_bottom_track_9.mux_l2_in_0_/S
+ VGND VGND VPWR VPWR mux_bottom_track_9.mux_l2_in_0_/X sky130_fd_sc_hd__mux2_1
Xmux_bottom_track_25.mux_l1_in_1_ _066_/HI chanx_left_in[13] mux_bottom_track_25.mux_l1_in_1_/S
+ VGND VGND VPWR VPWR mux_bottom_track_25.mux_l1_in_1_/X sky130_fd_sc_hd__mux2_1
XFILLER_19_135 VGND VGND VPWR VPWR sky130_fd_sc_hd__decap_12
XFILLER_18_190 VGND VGND VPWR VPWR sky130_fd_sc_hd__decap_12
XFILLER_16_105 VGND VGND VPWR VPWR sky130_fd_sc_hd__decap_12
XFILLER_0_215 VGND VGND VPWR VPWR sky130_fd_sc_hd__fill_2
XPHY_100 VGND VPWR sky130_fd_sc_hd__tapvpwrvgnd_1
XPHY_177 VGND VPWR sky130_fd_sc_hd__tapvpwrvgnd_1
XPHY_166 VGND VPWR sky130_fd_sc_hd__tapvpwrvgnd_1
XPHY_155 VGND VPWR sky130_fd_sc_hd__tapvpwrvgnd_1
XPHY_144 VGND VPWR sky130_fd_sc_hd__tapvpwrvgnd_1
XPHY_133 VGND VPWR sky130_fd_sc_hd__tapvpwrvgnd_1
XFILLER_15_171 VGND VGND VPWR VPWR sky130_fd_sc_hd__decap_12
XPHY_122 VGND VPWR sky130_fd_sc_hd__tapvpwrvgnd_1
XPHY_111 VGND VPWR sky130_fd_sc_hd__tapvpwrvgnd_1
XPHY_2 VGND VGND VPWR VPWR sky130_fd_sc_hd__decap_3
XFILLER_30_141 VGND VGND VPWR VPWR sky130_fd_sc_hd__decap_12
XFILLER_21_196 VGND VGND VPWR VPWR sky130_fd_sc_hd__decap_12
Xmux_left_track_5.sky130_fd_sc_hd__buf_4_0_ mux_left_track_5.mux_l3_in_0_/X VGND VGND
+ VPWR VPWR _088_/A sky130_fd_sc_hd__buf_4
XFILLER_16_93 VGND VGND VPWR VPWR sky130_fd_sc_hd__decap_12
XFILLER_12_141 VGND VGND VPWR VPWR sky130_fd_sc_hd__decap_12
XFILLER_12_29 VGND VGND VPWR VPWR sky130_fd_sc_hd__fill_2
Xmem_left_track_1.sky130_fd_sc_hd__dfxtp_1_2_ clkbuf_3_1_0_mem_bottom_track_1.prog_clk/X
+ mux_left_track_1.mux_l2_in_0_/S VGND VGND VPWR VPWR mux_left_track_1.mux_l3_in_0_/S
+ sky130_fd_sc_hd__dfxtp_1
XFILLER_5_159 VGND VGND VPWR VPWR sky130_fd_sc_hd__fill_2
XFILLER_4_30 VGND VGND VPWR VPWR sky130_fd_sc_hd__fill_1
XFILLER_2_129 VGND VGND VPWR VPWR sky130_fd_sc_hd__decap_4
Xmux_left_track_21.sky130_fd_sc_hd__buf_4_0_ mux_left_track_21.mux_l2_in_0_/X VGND
+ VGND VPWR VPWR _080_/A sky130_fd_sc_hd__buf_4
XFILLER_20_18 VGND VGND VPWR VPWR sky130_fd_sc_hd__fill_2
X_097_ _097_/A VGND VGND VPWR VPWR chany_bottom_out[13] sky130_fd_sc_hd__buf_2
XFILLER_29_49 VGND VGND VPWR VPWR sky130_fd_sc_hd__decap_12
Xmux_left_track_15.sky130_fd_sc_hd__buf_4_0_ mux_left_track_15.mux_l2_in_0_/X VGND
+ VGND VPWR VPWR _083_/A sky130_fd_sc_hd__buf_4
Xmux_bottom_track_25.mux_l1_in_0_ bottom_left_grid_pin_49_ bottom_right_grid_pin_1_
+ mux_bottom_track_25.mux_l1_in_1_/S VGND VGND VPWR VPWR mux_bottom_track_25.mux_l1_in_0_/X
+ sky130_fd_sc_hd__mux2_1
XFILLER_32_3 VGND VGND VPWR VPWR sky130_fd_sc_hd__decap_4
XFILLER_19_147 VGND VGND VPWR VPWR sky130_fd_sc_hd__decap_12
XFILLER_19_71 VGND VGND VPWR VPWR sky130_fd_sc_hd__decap_4
XFILLER_19_60 VGND VGND VPWR VPWR sky130_fd_sc_hd__fill_1
XFILLER_31_17 VGND VGND VPWR VPWR sky130_fd_sc_hd__decap_12
XPHY_178 VGND VPWR sky130_fd_sc_hd__tapvpwrvgnd_1
XPHY_167 VGND VPWR sky130_fd_sc_hd__tapvpwrvgnd_1
XPHY_156 VGND VPWR sky130_fd_sc_hd__tapvpwrvgnd_1
XPHY_145 VGND VPWR sky130_fd_sc_hd__tapvpwrvgnd_1
XPHY_134 VGND VPWR sky130_fd_sc_hd__tapvpwrvgnd_1
XFILLER_16_117 VGND VGND VPWR VPWR sky130_fd_sc_hd__decap_12
XPHY_123 VGND VPWR sky130_fd_sc_hd__tapvpwrvgnd_1
XPHY_112 VGND VPWR sky130_fd_sc_hd__tapvpwrvgnd_1
XPHY_101 VGND VPWR sky130_fd_sc_hd__tapvpwrvgnd_1
XFILLER_26_28 VGND VGND VPWR VPWR sky130_fd_sc_hd__decap_3
XPHY_3 VGND VGND VPWR VPWR sky130_fd_sc_hd__decap_3
XFILLER_7_96 VGND VGND VPWR VPWR sky130_fd_sc_hd__fill_2
Xmux_left_track_3.mux_l3_in_0_ mux_left_track_3.mux_l2_in_1_/X mux_left_track_3.mux_l2_in_0_/X
+ mux_left_track_3.mux_l3_in_0_/S VGND VGND VPWR VPWR mux_left_track_3.mux_l3_in_0_/X
+ sky130_fd_sc_hd__mux2_1
Xmux_bottom_track_9.mux_l1_in_0_ chanx_left_in[5] bottom_right_grid_pin_1_ mux_bottom_track_9.mux_l1_in_0_/S
+ VGND VGND VPWR VPWR mux_bottom_track_9.mux_l1_in_0_/X sky130_fd_sc_hd__mux2_1
XFILLER_12_19 VGND VGND VPWR VPWR sky130_fd_sc_hd__fill_2
Xmux_bottom_track_9.sky130_fd_sc_hd__buf_4_0_ mux_bottom_track_9.mux_l2_in_0_/X VGND
+ VGND VPWR VPWR _106_/A sky130_fd_sc_hd__buf_4
Xmem_left_track_1.sky130_fd_sc_hd__dfxtp_1_1_ clkbuf_3_6_0_mem_bottom_track_1.prog_clk/X
+ mux_left_track_1.mux_l1_in_0_/S VGND VGND VPWR VPWR mux_left_track_1.mux_l2_in_0_/S
+ sky130_fd_sc_hd__dfxtp_1
Xmux_left_track_3.mux_l2_in_1_ _049_/HI left_bottom_grid_pin_40_ mux_left_track_3.mux_l2_in_0_/S
+ VGND VGND VPWR VPWR mux_left_track_3.mux_l2_in_1_/X sky130_fd_sc_hd__mux2_1
XFILLER_29_9 VGND VGND VPWR VPWR sky130_fd_sc_hd__fill_2
XFILLER_14_215 VGND VGND VPWR VPWR sky130_fd_sc_hd__decap_4
XFILLER_13_62 VGND VGND VPWR VPWR sky130_fd_sc_hd__fill_2
XFILLER_1_174 VGND VGND VPWR VPWR sky130_fd_sc_hd__fill_2
Xmem_left_track_7.sky130_fd_sc_hd__dfxtp_1_2_ clkbuf_3_2_0_mem_bottom_track_1.prog_clk/X
+ mux_left_track_7.mux_l2_in_1_/S VGND VGND VPWR VPWR mux_left_track_7.mux_l3_in_0_/S
+ sky130_fd_sc_hd__dfxtp_1
X_096_ _096_/A VGND VGND VPWR VPWR chany_bottom_out[14] sky130_fd_sc_hd__buf_2
XFILLER_1_65 VGND VGND VPWR VPWR sky130_fd_sc_hd__fill_2
XFILLER_29_17 VGND VGND VPWR VPWR sky130_fd_sc_hd__fill_2
XFILLER_28_104 VGND VGND VPWR VPWR sky130_fd_sc_hd__decap_12
XFILLER_19_159 VGND VGND VPWR VPWR sky130_fd_sc_hd__decap_12
XFILLER_10_41 VGND VGND VPWR VPWR sky130_fd_sc_hd__fill_2
XFILLER_31_29 VGND VGND VPWR VPWR sky130_fd_sc_hd__decap_12
X_079_ _079_/A VGND VGND VPWR VPWR chanx_left_out[11] sky130_fd_sc_hd__buf_2
XFILLER_25_3 VGND VGND VPWR VPWR sky130_fd_sc_hd__decap_4
XPHY_179 VGND VPWR sky130_fd_sc_hd__tapvpwrvgnd_1
XPHY_168 VGND VPWR sky130_fd_sc_hd__tapvpwrvgnd_1
Xmux_left_track_37.sky130_fd_sc_hd__buf_4_0_ mux_left_track_37.mux_l2_in_0_/X VGND
+ VGND VPWR VPWR _072_/A sky130_fd_sc_hd__buf_4
XPHY_157 VGND VPWR sky130_fd_sc_hd__tapvpwrvgnd_1
XFILLER_24_140 VGND VGND VPWR VPWR sky130_fd_sc_hd__decap_12
XPHY_146 VGND VPWR sky130_fd_sc_hd__tapvpwrvgnd_1
XFILLER_21_62 VGND VGND VPWR VPWR sky130_fd_sc_hd__fill_1
XPHY_135 VGND VPWR sky130_fd_sc_hd__tapvpwrvgnd_1
XFILLER_16_129 VGND VGND VPWR VPWR sky130_fd_sc_hd__decap_12
XPHY_124 VGND VPWR sky130_fd_sc_hd__tapvpwrvgnd_1