* NGSPICE file created from sb_2__1_.ext - technology: sky130A

* Black-box entry subcircuit for sky130_fd_sc_hd__decap_12 abstract view
.subckt sky130_fd_sc_hd__decap_12 VGND VNB VPB VPWR
.ends

* Black-box entry subcircuit for sky130_fd_sc_hd__dfxtp_1 abstract view
.subckt sky130_fd_sc_hd__dfxtp_1 CLK D VGND VNB VPB VPWR Q
.ends

* Black-box entry subcircuit for sky130_fd_sc_hd__mux2_1 abstract view
.subckt sky130_fd_sc_hd__mux2_1 A0 A1 S VGND VNB VPB VPWR X
.ends

* Black-box entry subcircuit for sky130_fd_sc_hd__fill_2 abstract view
.subckt sky130_fd_sc_hd__fill_2 VGND VNB VPB VPWR
.ends

* Black-box entry subcircuit for sky130_fd_sc_hd__fill_1 abstract view
.subckt sky130_fd_sc_hd__fill_1 VGND VNB VPB VPWR
.ends

* Black-box entry subcircuit for sky130_fd_sc_hd__conb_1 abstract view
.subckt sky130_fd_sc_hd__conb_1 VGND VNB VPB VPWR HI LO
.ends

* Black-box entry subcircuit for sky130_fd_sc_hd__buf_2 abstract view
.subckt sky130_fd_sc_hd__buf_2 A VGND VNB VPB VPWR X
.ends

* Black-box entry subcircuit for sky130_fd_sc_hd__decap_8 abstract view
.subckt sky130_fd_sc_hd__decap_8 VGND VNB VPB VPWR
.ends

* Black-box entry subcircuit for sky130_fd_sc_hd__decap_4 abstract view
.subckt sky130_fd_sc_hd__decap_4 VGND VNB VPB VPWR
.ends

* Black-box entry subcircuit for sky130_fd_sc_hd__decap_6 abstract view
.subckt sky130_fd_sc_hd__decap_6 VGND VNB VPB VPWR
.ends

* Black-box entry subcircuit for sky130_fd_sc_hd__tapvpwrvgnd_1 abstract view
.subckt sky130_fd_sc_hd__tapvpwrvgnd_1 VGND VPWR
.ends

* Black-box entry subcircuit for sky130_fd_sc_hd__decap_3 abstract view
.subckt sky130_fd_sc_hd__decap_3 VGND VNB VPB VPWR
.ends

* Black-box entry subcircuit for sky130_fd_sc_hd__buf_4 abstract view
.subckt sky130_fd_sc_hd__buf_4 A VGND VNB VPB VPWR X
.ends

* Black-box entry subcircuit for sky130_fd_sc_hd__clkbuf_1 abstract view
.subckt sky130_fd_sc_hd__clkbuf_1 A VGND VNB VPB VPWR X
.ends

* Black-box entry subcircuit for sky130_fd_sc_hd__buf_8 abstract view
.subckt sky130_fd_sc_hd__buf_8 A VGND VNB VPB VPWR X
.ends

* Black-box entry subcircuit for sky130_fd_sc_hd__clkbuf_16 abstract view
.subckt sky130_fd_sc_hd__clkbuf_16 A VGND VNB VPB VPWR X
.ends

.subckt sb_2__1_ bottom_left_grid_pin_42_ bottom_left_grid_pin_43_ bottom_left_grid_pin_44_
+ bottom_left_grid_pin_45_ bottom_left_grid_pin_46_ bottom_left_grid_pin_47_ bottom_left_grid_pin_48_
+ bottom_left_grid_pin_49_ bottom_right_grid_pin_1_ ccff_head ccff_tail chanx_left_in[0]
+ chanx_left_in[10] chanx_left_in[11] chanx_left_in[12] chanx_left_in[13] chanx_left_in[14]
+ chanx_left_in[15] chanx_left_in[16] chanx_left_in[17] chanx_left_in[18] chanx_left_in[19]
+ chanx_left_in[1] chanx_left_in[2] chanx_left_in[3] chanx_left_in[4] chanx_left_in[5]
+ chanx_left_in[6] chanx_left_in[7] chanx_left_in[8] chanx_left_in[9] chanx_left_out[0]
+ chanx_left_out[10] chanx_left_out[11] chanx_left_out[12] chanx_left_out[13] chanx_left_out[14]
+ chanx_left_out[15] chanx_left_out[16] chanx_left_out[17] chanx_left_out[18] chanx_left_out[19]
+ chanx_left_out[1] chanx_left_out[2] chanx_left_out[3] chanx_left_out[4] chanx_left_out[5]
+ chanx_left_out[6] chanx_left_out[7] chanx_left_out[8] chanx_left_out[9] chany_bottom_in[0]
+ chany_bottom_in[10] chany_bottom_in[11] chany_bottom_in[12] chany_bottom_in[13]
+ chany_bottom_in[14] chany_bottom_in[15] chany_bottom_in[16] chany_bottom_in[17]
+ chany_bottom_in[18] chany_bottom_in[19] chany_bottom_in[1] chany_bottom_in[2] chany_bottom_in[3]
+ chany_bottom_in[4] chany_bottom_in[5] chany_bottom_in[6] chany_bottom_in[7] chany_bottom_in[8]
+ chany_bottom_in[9] chany_bottom_out[0] chany_bottom_out[10] chany_bottom_out[11]
+ chany_bottom_out[12] chany_bottom_out[13] chany_bottom_out[14] chany_bottom_out[15]
+ chany_bottom_out[16] chany_bottom_out[17] chany_bottom_out[18] chany_bottom_out[19]
+ chany_bottom_out[1] chany_bottom_out[2] chany_bottom_out[3] chany_bottom_out[4]
+ chany_bottom_out[5] chany_bottom_out[6] chany_bottom_out[7] chany_bottom_out[8]
+ chany_bottom_out[9] chany_top_in[0] chany_top_in[10] chany_top_in[11] chany_top_in[12]
+ chany_top_in[13] chany_top_in[14] chany_top_in[15] chany_top_in[16] chany_top_in[17]
+ chany_top_in[18] chany_top_in[19] chany_top_in[1] chany_top_in[2] chany_top_in[3]
+ chany_top_in[4] chany_top_in[5] chany_top_in[6] chany_top_in[7] chany_top_in[8]
+ chany_top_in[9] chany_top_out[0] chany_top_out[10] chany_top_out[11] chany_top_out[12]
+ chany_top_out[13] chany_top_out[14] chany_top_out[15] chany_top_out[16] chany_top_out[17]
+ chany_top_out[18] chany_top_out[19] chany_top_out[1] chany_top_out[2] chany_top_out[3]
+ chany_top_out[4] chany_top_out[5] chany_top_out[6] chany_top_out[7] chany_top_out[8]
+ chany_top_out[9] left_bottom_grid_pin_34_ left_bottom_grid_pin_35_ left_bottom_grid_pin_36_
+ left_bottom_grid_pin_37_ left_bottom_grid_pin_38_ left_bottom_grid_pin_39_ left_bottom_grid_pin_40_
+ left_bottom_grid_pin_41_ prog_clk_0_N_in top_left_grid_pin_42_ top_left_grid_pin_43_
+ top_left_grid_pin_44_ top_left_grid_pin_45_ top_left_grid_pin_46_ top_left_grid_pin_47_
+ top_left_grid_pin_48_ top_left_grid_pin_49_ top_right_grid_pin_1_ VPWR VGND
XFILLER_22_199 VGND VGND VPWR VPWR sky130_fd_sc_hd__decap_12
Xmem_left_track_17.sky130_fd_sc_hd__dfxtp_1_0_ clkbuf_3_2_0_mem_bottom_track_1.prog_clk/X
+ mux_left_track_15.mux_l3_in_0_/S VGND VGND VPWR VPWR mux_left_track_17.mux_l1_in_1_/S
+ sky130_fd_sc_hd__dfxtp_1
Xmux_bottom_track_3.mux_l1_in_1_ bottom_left_grid_pin_44_ bottom_left_grid_pin_42_
+ mux_bottom_track_3.mux_l1_in_1_/S VGND VGND VPWR VPWR mux_bottom_track_3.mux_l1_in_1_/X
+ sky130_fd_sc_hd__mux2_1
XFILLER_10_125 VGND VGND VPWR VPWR sky130_fd_sc_hd__fill_2
XFILLER_5_184 VGND VGND VPWR VPWR sky130_fd_sc_hd__decap_12
XFILLER_23_75 VGND VGND VPWR VPWR sky130_fd_sc_hd__fill_1
X_062_ VGND VGND VPWR VPWR _062_/HI _062_/LO sky130_fd_sc_hd__conb_1
X_114_ _114_/A VGND VGND VPWR VPWR chany_top_out[8] sky130_fd_sc_hd__buf_2
XFILLER_18_20 VGND VGND VPWR VPWR sky130_fd_sc_hd__decap_8
X_045_ VGND VGND VPWR VPWR _045_/HI _045_/LO sky130_fd_sc_hd__conb_1
Xmux_bottom_track_17.mux_l1_in_0_ chany_top_in[17] chany_top_in[8] mux_bottom_track_17.mux_l1_in_2_/S
+ VGND VGND VPWR VPWR mux_bottom_track_17.mux_l1_in_0_/X sky130_fd_sc_hd__mux2_1
Xmem_bottom_track_25.sky130_fd_sc_hd__dfxtp_1_2_ clkbuf_3_5_0_mem_bottom_track_1.prog_clk/X
+ mux_bottom_track_25.mux_l2_in_1_/S VGND VGND VPWR VPWR mux_bottom_track_25.mux_l3_in_0_/S
+ sky130_fd_sc_hd__dfxtp_1
XFILLER_20_32 VGND VGND VPWR VPWR sky130_fd_sc_hd__decap_4
XFILLER_4_205 VGND VGND VPWR VPWR sky130_fd_sc_hd__decap_8
XFILLER_26_109 VGND VGND VPWR VPWR sky130_fd_sc_hd__fill_2
XFILLER_13_3 VGND VGND VPWR VPWR sky130_fd_sc_hd__decap_6
XFILLER_31_20 VGND VGND VPWR VPWR sky130_fd_sc_hd__fill_2
XFILLER_17_109 VGND VGND VPWR VPWR sky130_fd_sc_hd__fill_2
XPHY_181 VGND VPWR sky130_fd_sc_hd__tapvpwrvgnd_1
XFILLER_31_156 VGND VGND VPWR VPWR sky130_fd_sc_hd__fill_2
XFILLER_31_123 VGND VGND VPWR VPWR sky130_fd_sc_hd__decap_3
XFILLER_31_112 VGND VGND VPWR VPWR sky130_fd_sc_hd__fill_1
XPHY_170 VGND VPWR sky130_fd_sc_hd__tapvpwrvgnd_1
XFILLER_16_186 VGND VGND VPWR VPWR sky130_fd_sc_hd__decap_12
Xmux_bottom_track_3.sky130_fd_sc_hd__buf_4_0_ mux_bottom_track_3.mux_l4_in_0_/X VGND
+ VGND VPWR VPWR _087_/A sky130_fd_sc_hd__buf_4
Xmem_bottom_track_3.sky130_fd_sc_hd__dfxtp_1_3_ clkbuf_3_0_0_mem_bottom_track_1.prog_clk/X
+ mux_bottom_track_3.mux_l3_in_1_/S VGND VGND VPWR VPWR mux_bottom_track_3.mux_l4_in_0_/S
+ sky130_fd_sc_hd__dfxtp_1
XFILLER_3_13 VGND VGND VPWR VPWR sky130_fd_sc_hd__fill_2
XFILLER_3_24 VGND VGND VPWR VPWR sky130_fd_sc_hd__decap_4
Xmux_bottom_track_3.mux_l1_in_0_ chany_top_in[13] chany_top_in[4] mux_bottom_track_3.mux_l1_in_1_/S
+ VGND VGND VPWR VPWR mux_bottom_track_3.mux_l1_in_0_/X sky130_fd_sc_hd__mux2_1
XFILLER_3_79 VGND VGND VPWR VPWR sky130_fd_sc_hd__fill_2
Xclkbuf_1_0_0_mem_bottom_track_1.prog_clk clkbuf_0_mem_bottom_track_1.prog_clk/X VGND
+ VGND VPWR VPWR clkbuf_2_1_0_mem_bottom_track_1.prog_clk/A sky130_fd_sc_hd__clkbuf_1
XFILLER_18_215 VGND VGND VPWR VPWR sky130_fd_sc_hd__decap_4
XFILLER_5_196 VGND VGND VPWR VPWR sky130_fd_sc_hd__decap_6
XFILLER_23_54 VGND VGND VPWR VPWR sky130_fd_sc_hd__decap_6
X_061_ VGND VGND VPWR VPWR _061_/HI _061_/LO sky130_fd_sc_hd__conb_1
XFILLER_9_78 VGND VGND VPWR VPWR sky130_fd_sc_hd__decap_4
XFILLER_9_45 VGND VGND VPWR VPWR sky130_fd_sc_hd__decap_4
XFILLER_9_34 VGND VGND VPWR VPWR sky130_fd_sc_hd__fill_2
XFILLER_9_23 VGND VGND VPWR VPWR sky130_fd_sc_hd__fill_2
XFILLER_9_12 VGND VGND VPWR VPWR sky130_fd_sc_hd__fill_2
Xmux_left_track_9.sky130_fd_sc_hd__buf_4_0_ mux_left_track_9.mux_l3_in_0_/X VGND VGND
+ VPWR VPWR _070_/A sky130_fd_sc_hd__buf_4
X_113_ chany_bottom_in[6] VGND VGND VPWR VPWR chany_top_out[7] sky130_fd_sc_hd__buf_2
X_044_ VGND VGND VPWR VPWR _044_/HI _044_/LO sky130_fd_sc_hd__conb_1
Xmem_bottom_track_25.sky130_fd_sc_hd__dfxtp_1_1_ clkbuf_3_5_0_mem_bottom_track_1.prog_clk/X
+ mux_bottom_track_25.mux_l1_in_2_/S VGND VGND VPWR VPWR mux_bottom_track_25.mux_l2_in_1_/S
+ sky130_fd_sc_hd__dfxtp_1
Xmux_left_track_31.sky130_fd_sc_hd__buf_4_0_ mux_left_track_31.mux_l2_in_0_/X VGND
+ VGND VPWR VPWR _081_/A sky130_fd_sc_hd__buf_4
XFILLER_29_42 VGND VGND VPWR VPWR sky130_fd_sc_hd__decap_8
Xmem_left_track_35.sky130_fd_sc_hd__dfxtp_1_1_ clkbuf_3_2_0_mem_bottom_track_1.prog_clk/X
+ mux_left_track_35.mux_l1_in_0_/S VGND VGND VPWR VPWR mux_left_track_35.mux_l2_in_0_/S
+ sky130_fd_sc_hd__dfxtp_1
XFILLER_19_184 VGND VGND VPWR VPWR sky130_fd_sc_hd__decap_12
XFILLER_6_57 VGND VGND VPWR VPWR sky130_fd_sc_hd__fill_2
XFILLER_6_68 VGND VGND VPWR VPWR sky130_fd_sc_hd__fill_2
XFILLER_6_79 VGND VGND VPWR VPWR sky130_fd_sc_hd__decap_12
Xmux_left_track_7.mux_l1_in_3_ _045_/HI left_bottom_grid_pin_41_ mux_left_track_7.mux_l1_in_1_/S
+ VGND VGND VPWR VPWR mux_left_track_7.mux_l1_in_3_/X sky130_fd_sc_hd__mux2_1
XFILLER_1_209 VGND VGND VPWR VPWR sky130_fd_sc_hd__decap_8
XPHY_182 VGND VPWR sky130_fd_sc_hd__tapvpwrvgnd_1
XFILLER_31_168 VGND VGND VPWR VPWR sky130_fd_sc_hd__fill_2
XPHY_171 VGND VPWR sky130_fd_sc_hd__tapvpwrvgnd_1
XPHY_160 VGND VPWR sky130_fd_sc_hd__tapvpwrvgnd_1
XFILLER_16_198 VGND VGND VPWR VPWR sky130_fd_sc_hd__decap_12
Xmux_left_track_25.sky130_fd_sc_hd__buf_4_0_ mux_left_track_25.mux_l2_in_0_/X VGND
+ VGND VPWR VPWR _078_/A sky130_fd_sc_hd__buf_4
XFILLER_22_102 VGND VGND VPWR VPWR sky130_fd_sc_hd__decap_8
Xmux_left_track_15.mux_l3_in_0_ mux_left_track_15.mux_l2_in_1_/X mux_left_track_15.mux_l2_in_0_/X
+ mux_left_track_15.mux_l3_in_0_/S VGND VGND VPWR VPWR mux_left_track_15.mux_l3_in_0_/X
+ sky130_fd_sc_hd__mux2_1
Xmux_top_track_0.mux_l2_in_3_ _047_/HI chanx_left_in[14] mux_top_track_0.mux_l2_in_1_/S
+ VGND VGND VPWR VPWR mux_top_track_0.mux_l2_in_3_/X sky130_fd_sc_hd__mux2_1
Xmem_bottom_track_3.sky130_fd_sc_hd__dfxtp_1_2_ clkbuf_3_0_0_mem_bottom_track_1.prog_clk/X
+ mux_bottom_track_3.mux_l2_in_2_/S VGND VGND VPWR VPWR mux_bottom_track_3.mux_l3_in_1_/S
+ sky130_fd_sc_hd__dfxtp_1
XFILLER_12_190 VGND VGND VPWR VPWR sky130_fd_sc_hd__decap_12
Xclkbuf_3_4_0_mem_bottom_track_1.prog_clk clkbuf_3_5_0_mem_bottom_track_1.prog_clk/A
+ VGND VGND VPWR VPWR clkbuf_3_4_0_mem_bottom_track_1.prog_clk/X sky130_fd_sc_hd__clkbuf_1
XFILLER_12_67 VGND VGND VPWR VPWR sky130_fd_sc_hd__fill_2
XFILLER_10_149 VGND VGND VPWR VPWR sky130_fd_sc_hd__decap_4
XFILLER_6_109 VGND VGND VPWR VPWR sky130_fd_sc_hd__fill_2
Xmux_left_track_19.sky130_fd_sc_hd__buf_4_0_ mux_left_track_19.mux_l2_in_0_/X VGND
+ VGND VPWR VPWR _075_/A sky130_fd_sc_hd__buf_4
Xmux_left_track_15.mux_l2_in_1_ _064_/HI left_bottom_grid_pin_37_ mux_left_track_15.mux_l2_in_1_/S
+ VGND VGND VPWR VPWR mux_left_track_15.mux_l2_in_1_/X sky130_fd_sc_hd__mux2_1
Xmux_left_track_7.mux_l3_in_0_ mux_left_track_7.mux_l2_in_1_/X mux_left_track_7.mux_l2_in_0_/X
+ mux_left_track_7.mux_l3_in_0_/S VGND VGND VPWR VPWR mux_left_track_7.mux_l3_in_0_/X
+ sky130_fd_sc_hd__mux2_1
XFILLER_5_120 VGND VGND VPWR VPWR sky130_fd_sc_hd__fill_2
XFILLER_5_175 VGND VGND VPWR VPWR sky130_fd_sc_hd__fill_2
XFILLER_24_219 VGND VGND VPWR VPWR sky130_fd_sc_hd__fill_1
XFILLER_15_208 VGND VGND VPWR VPWR sky130_fd_sc_hd__decap_12
Xmux_top_track_0.mux_l4_in_0_ mux_top_track_0.mux_l3_in_1_/X mux_top_track_0.mux_l3_in_0_/X
+ mux_top_track_0.mux_l4_in_0_/S VGND VGND VPWR VPWR mux_top_track_0.mux_l4_in_0_/X
+ sky130_fd_sc_hd__mux2_1
XFILLER_0_59 VGND VGND VPWR VPWR sky130_fd_sc_hd__decap_3
XFILLER_2_123 VGND VGND VPWR VPWR sky130_fd_sc_hd__fill_2
XFILLER_2_134 VGND VGND VPWR VPWR sky130_fd_sc_hd__fill_2
XFILLER_2_145 VGND VGND VPWR VPWR sky130_fd_sc_hd__decap_8
XFILLER_3_3 VGND VGND VPWR VPWR sky130_fd_sc_hd__fill_1
Xmem_bottom_track_9.sky130_fd_sc_hd__dfxtp_1_3_ clkbuf_3_5_0_mem_bottom_track_1.prog_clk/X
+ mux_bottom_track_9.mux_l3_in_1_/S VGND VGND VPWR VPWR mux_bottom_track_9.mux_l4_in_0_/S
+ sky130_fd_sc_hd__dfxtp_1
X_060_ VGND VGND VPWR VPWR _060_/HI _060_/LO sky130_fd_sc_hd__conb_1
XFILLER_20_211 VGND VGND VPWR VPWR sky130_fd_sc_hd__decap_3
X_112_ chany_bottom_in[5] VGND VGND VPWR VPWR chany_top_out[6] sky130_fd_sc_hd__buf_2
X_043_ VGND VGND VPWR VPWR _043_/HI _043_/LO sky130_fd_sc_hd__conb_1
XFILLER_18_66 VGND VGND VPWR VPWR sky130_fd_sc_hd__decap_3
Xmux_left_track_7.mux_l2_in_1_ mux_left_track_7.mux_l1_in_3_/X mux_left_track_7.mux_l1_in_2_/X
+ mux_left_track_7.mux_l2_in_1_/S VGND VGND VPWR VPWR mux_left_track_7.mux_l2_in_1_/X
+ sky130_fd_sc_hd__mux2_1
Xmem_bottom_track_25.sky130_fd_sc_hd__dfxtp_1_0_ clkbuf_3_5_0_mem_bottom_track_1.prog_clk/X
+ mux_bottom_track_17.mux_l3_in_0_/S VGND VGND VPWR VPWR mux_bottom_track_25.mux_l1_in_2_/S
+ sky130_fd_sc_hd__dfxtp_1
Xmux_top_track_0.mux_l3_in_1_ mux_top_track_0.mux_l2_in_3_/X mux_top_track_0.mux_l2_in_2_/X
+ mux_top_track_0.mux_l3_in_0_/S VGND VGND VPWR VPWR mux_top_track_0.mux_l3_in_1_/X
+ sky130_fd_sc_hd__mux2_1
Xmem_top_track_16.sky130_fd_sc_hd__dfxtp_1_2_ clkbuf_3_4_0_mem_bottom_track_1.prog_clk/X
+ mux_top_track_16.mux_l2_in_0_/S VGND VGND VPWR VPWR mux_top_track_16.mux_l3_in_0_/S
+ sky130_fd_sc_hd__dfxtp_1
Xmem_left_track_35.sky130_fd_sc_hd__dfxtp_1_0_ clkbuf_3_2_0_mem_bottom_track_1.prog_clk/X
+ mux_left_track_33.mux_l2_in_0_/S VGND VGND VPWR VPWR mux_left_track_35.mux_l1_in_0_/S
+ sky130_fd_sc_hd__dfxtp_1
XFILLER_19_196 VGND VGND VPWR VPWR sky130_fd_sc_hd__decap_12
Xmux_left_track_7.mux_l1_in_2_ left_bottom_grid_pin_39_ left_bottom_grid_pin_37_ mux_left_track_7.mux_l1_in_1_/S
+ VGND VGND VPWR VPWR mux_left_track_7.mux_l1_in_2_/X sky130_fd_sc_hd__mux2_1
XFILLER_25_111 VGND VGND VPWR VPWR sky130_fd_sc_hd__decap_8
XFILLER_25_100 VGND VGND VPWR VPWR sky130_fd_sc_hd__fill_2
XFILLER_15_78 VGND VGND VPWR VPWR sky130_fd_sc_hd__fill_2
XPHY_183 VGND VPWR sky130_fd_sc_hd__tapvpwrvgnd_1
XPHY_172 VGND VPWR sky130_fd_sc_hd__tapvpwrvgnd_1
XPHY_161 VGND VPWR sky130_fd_sc_hd__tapvpwrvgnd_1
XPHY_150 VGND VPWR sky130_fd_sc_hd__tapvpwrvgnd_1
Xmux_top_track_0.mux_l2_in_2_ chanx_left_in[7] chanx_left_in[0] mux_top_track_0.mux_l2_in_1_/S
+ VGND VGND VPWR VPWR mux_top_track_0.mux_l2_in_2_/X sky130_fd_sc_hd__mux2_1
Xmem_bottom_track_3.sky130_fd_sc_hd__dfxtp_1_1_ clkbuf_3_1_0_mem_bottom_track_1.prog_clk/X
+ mux_bottom_track_3.mux_l1_in_1_/S VGND VGND VPWR VPWR mux_bottom_track_3.mux_l2_in_2_/S
+ sky130_fd_sc_hd__dfxtp_1
XFILLER_3_37 VGND VGND VPWR VPWR sky130_fd_sc_hd__fill_2
XFILLER_3_48 VGND VGND VPWR VPWR sky130_fd_sc_hd__fill_2
XFILLER_3_59 VGND VGND VPWR VPWR sky130_fd_sc_hd__fill_2
XFILLER_8_151 VGND VGND VPWR VPWR sky130_fd_sc_hd__fill_2
XFILLER_12_46 VGND VGND VPWR VPWR sky130_fd_sc_hd__fill_2
Xmux_left_track_15.mux_l2_in_0_ chany_bottom_in[19] mux_left_track_15.mux_l1_in_0_/X
+ mux_left_track_15.mux_l2_in_1_/S VGND VGND VPWR VPWR mux_left_track_15.mux_l2_in_0_/X
+ sky130_fd_sc_hd__mux2_1
XFILLER_18_206 VGND VGND VPWR VPWR sky130_fd_sc_hd__decap_8
XFILLER_5_132 VGND VGND VPWR VPWR sky130_fd_sc_hd__decap_12
Xprog_clk_0_FTB00 prog_clk_0_N_in VGND VGND VPWR VPWR prog_clk_0_FTB00/X sky130_fd_sc_hd__buf_8
Xmem_bottom_track_9.sky130_fd_sc_hd__dfxtp_1_2_ clkbuf_3_5_0_mem_bottom_track_1.prog_clk/X
+ mux_bottom_track_9.mux_l2_in_3_/S VGND VGND VPWR VPWR mux_bottom_track_9.mux_l3_in_1_/S
+ sky130_fd_sc_hd__dfxtp_1
XFILLER_18_89 VGND VGND VPWR VPWR sky130_fd_sc_hd__decap_3
XFILLER_18_78 VGND VGND VPWR VPWR sky130_fd_sc_hd__fill_2
X_111_ chany_bottom_in[4] VGND VGND VPWR VPWR chany_top_out[5] sky130_fd_sc_hd__buf_2
X_042_ VGND VGND VPWR VPWR _042_/HI _042_/LO sky130_fd_sc_hd__conb_1
Xmux_left_track_7.mux_l2_in_0_ mux_left_track_7.mux_l1_in_1_/X mux_left_track_7.mux_l1_in_0_/X
+ mux_left_track_7.mux_l2_in_1_/S VGND VGND VPWR VPWR mux_left_track_7.mux_l2_in_0_/X
+ sky130_fd_sc_hd__mux2_1
Xmux_top_track_0.mux_l3_in_0_ mux_top_track_0.mux_l2_in_1_/X mux_top_track_0.mux_l2_in_0_/X
+ mux_top_track_0.mux_l3_in_0_/S VGND VGND VPWR VPWR mux_top_track_0.mux_l3_in_0_/X
+ sky130_fd_sc_hd__mux2_1
XFILLER_1_81 VGND VGND VPWR VPWR sky130_fd_sc_hd__decap_6
XFILLER_4_219 VGND VGND VPWR VPWR sky130_fd_sc_hd__fill_1
XFILLER_20_7 VGND VGND VPWR VPWR sky130_fd_sc_hd__fill_1
Xmem_top_track_16.sky130_fd_sc_hd__dfxtp_1_1_ clkbuf_3_6_0_mem_bottom_track_1.prog_clk/X
+ mux_top_track_16.mux_l1_in_0_/S VGND VGND VPWR VPWR mux_top_track_16.mux_l2_in_0_/S
+ sky130_fd_sc_hd__dfxtp_1
XFILLER_10_90 VGND VGND VPWR VPWR sky130_fd_sc_hd__fill_2
XFILLER_31_12 VGND VGND VPWR VPWR sky130_fd_sc_hd__fill_2
Xmux_left_track_7.mux_l1_in_1_ left_bottom_grid_pin_35_ chany_bottom_in[6] mux_left_track_7.mux_l1_in_1_/S
+ VGND VGND VPWR VPWR mux_left_track_7.mux_l1_in_1_/X sky130_fd_sc_hd__mux2_1
XPHY_184 VGND VPWR sky130_fd_sc_hd__tapvpwrvgnd_1
XPHY_173 VGND VPWR sky130_fd_sc_hd__tapvpwrvgnd_1
XPHY_162 VGND VPWR sky130_fd_sc_hd__tapvpwrvgnd_1
XPHY_151 VGND VPWR sky130_fd_sc_hd__tapvpwrvgnd_1
Xmux_top_track_0.mux_l2_in_1_ chany_bottom_in[12] mux_top_track_0.mux_l1_in_2_/X mux_top_track_0.mux_l2_in_1_/S
+ VGND VGND VPWR VPWR mux_top_track_0.mux_l2_in_1_/X sky130_fd_sc_hd__mux2_1
XPHY_140 VGND VPWR sky130_fd_sc_hd__tapvpwrvgnd_1
XFILLER_16_145 VGND VGND VPWR VPWR sky130_fd_sc_hd__decap_8
XFILLER_11_3 VGND VGND VPWR VPWR sky130_fd_sc_hd__decap_6
XFILLER_13_115 VGND VGND VPWR VPWR sky130_fd_sc_hd__fill_2
Xmem_bottom_track_3.sky130_fd_sc_hd__dfxtp_1_0_ clkbuf_3_1_0_mem_bottom_track_1.prog_clk/X
+ mux_bottom_track_1.mux_l4_in_0_/S VGND VGND VPWR VPWR mux_bottom_track_3.mux_l1_in_1_/S
+ sky130_fd_sc_hd__dfxtp_1
XFILLER_8_163 VGND VGND VPWR VPWR sky130_fd_sc_hd__decap_12
Xmux_top_track_0.mux_l1_in_2_ chany_bottom_in[2] top_right_grid_pin_1_ mux_top_track_0.mux_l1_in_1_/S
+ VGND VGND VPWR VPWR mux_top_track_0.mux_l1_in_2_/X sky130_fd_sc_hd__mux2_1
Xmux_top_track_16.sky130_fd_sc_hd__buf_4_0_ mux_top_track_16.mux_l3_in_0_/X VGND VGND
+ VPWR VPWR _114_/A sky130_fd_sc_hd__buf_4
XFILLER_23_79 VGND VGND VPWR VPWR sky130_fd_sc_hd__decap_12
Xmem_bottom_track_9.sky130_fd_sc_hd__dfxtp_1_1_ clkbuf_3_5_0_mem_bottom_track_1.prog_clk/X
+ mux_bottom_track_9.mux_l1_in_0_/S VGND VGND VPWR VPWR mux_bottom_track_9.mux_l2_in_3_/S
+ sky130_fd_sc_hd__dfxtp_1
XFILLER_2_103 VGND VGND VPWR VPWR sky130_fd_sc_hd__decap_4
XFILLER_2_169 VGND VGND VPWR VPWR sky130_fd_sc_hd__fill_2
XFILLER_9_59 VGND VGND VPWR VPWR sky130_fd_sc_hd__fill_2
Xmux_left_track_15.mux_l1_in_0_ chany_bottom_in[12] chany_top_in[12] mux_left_track_15.mux_l1_in_0_/S
+ VGND VGND VPWR VPWR mux_left_track_15.mux_l1_in_0_/X sky130_fd_sc_hd__mux2_1
X_110_ _110_/A VGND VGND VPWR VPWR chany_top_out[4] sky130_fd_sc_hd__buf_2
X_041_ VGND VGND VPWR VPWR _041_/HI _041_/LO sky130_fd_sc_hd__conb_1
XFILLER_28_154 VGND VGND VPWR VPWR sky130_fd_sc_hd__decap_12
XFILLER_20_69 VGND VGND VPWR VPWR sky130_fd_sc_hd__fill_2
XFILLER_20_14 VGND VGND VPWR VPWR sky130_fd_sc_hd__decap_6
XFILLER_19_165 VGND VGND VPWR VPWR sky130_fd_sc_hd__decap_12
XFILLER_19_154 VGND VGND VPWR VPWR sky130_fd_sc_hd__fill_2
XFILLER_19_143 VGND VGND VPWR VPWR sky130_fd_sc_hd__fill_2
Xmem_top_track_16.sky130_fd_sc_hd__dfxtp_1_0_ clkbuf_3_7_0_mem_bottom_track_1.prog_clk/X
+ mux_top_track_8.mux_l4_in_0_/S VGND VGND VPWR VPWR mux_top_track_16.mux_l1_in_0_/S
+ sky130_fd_sc_hd__dfxtp_1
Xmux_bottom_track_9.mux_l2_in_3_ _060_/HI chanx_left_in[18] mux_bottom_track_9.mux_l2_in_3_/S
+ VGND VGND VPWR VPWR mux_bottom_track_9.mux_l2_in_3_/X sky130_fd_sc_hd__mux2_1
Xmux_top_track_0.sky130_fd_sc_hd__buf_4_0_ mux_top_track_0.mux_l4_in_0_/X VGND VGND
+ VPWR VPWR _106_/A sky130_fd_sc_hd__buf_4
XFILLER_31_68 VGND VGND VPWR VPWR sky130_fd_sc_hd__decap_4
XFILLER_31_57 VGND VGND VPWR VPWR sky130_fd_sc_hd__decap_4
XFILLER_15_25 VGND VGND VPWR VPWR sky130_fd_sc_hd__fill_2
XFILLER_15_14 VGND VGND VPWR VPWR sky130_fd_sc_hd__fill_2
XFILLER_0_212 VGND VGND VPWR VPWR sky130_fd_sc_hd__decap_4
Xmux_left_track_7.mux_l1_in_0_ chany_bottom_in[3] chany_top_in[6] mux_left_track_7.mux_l1_in_1_/S
+ VGND VGND VPWR VPWR mux_left_track_7.mux_l1_in_0_/X sky130_fd_sc_hd__mux2_1
XPHY_185 VGND VPWR sky130_fd_sc_hd__tapvpwrvgnd_1
XFILLER_31_138 VGND VGND VPWR VPWR sky130_fd_sc_hd__fill_2
XPHY_174 VGND VPWR sky130_fd_sc_hd__tapvpwrvgnd_1
XPHY_163 VGND VPWR sky130_fd_sc_hd__tapvpwrvgnd_1
XPHY_152 VGND VPWR sky130_fd_sc_hd__tapvpwrvgnd_1
XPHY_141 VGND VPWR sky130_fd_sc_hd__tapvpwrvgnd_1
Xmux_top_track_0.mux_l2_in_0_ mux_top_track_0.mux_l1_in_1_/X mux_top_track_0.mux_l1_in_0_/X
+ mux_top_track_0.mux_l2_in_1_/S VGND VGND VPWR VPWR mux_top_track_0.mux_l2_in_0_/X
+ sky130_fd_sc_hd__mux2_1
XPHY_130 VGND VPWR sky130_fd_sc_hd__tapvpwrvgnd_1
XFILLER_30_160 VGND VGND VPWR VPWR sky130_fd_sc_hd__fill_2
XFILLER_22_149 VGND VGND VPWR VPWR sky130_fd_sc_hd__decap_4
XFILLER_26_79 VGND VGND VPWR VPWR sky130_fd_sc_hd__fill_2
XFILLER_26_68 VGND VGND VPWR VPWR sky130_fd_sc_hd__fill_2
XFILLER_27_208 VGND VGND VPWR VPWR sky130_fd_sc_hd__decap_12
XFILLER_8_175 VGND VGND VPWR VPWR sky130_fd_sc_hd__decap_12
Xmux_top_track_0.mux_l1_in_1_ top_left_grid_pin_48_ top_left_grid_pin_46_ mux_top_track_0.mux_l1_in_1_/S
+ VGND VGND VPWR VPWR mux_top_track_0.mux_l1_in_1_/X sky130_fd_sc_hd__mux2_1
XFILLER_18_219 VGND VGND VPWR VPWR sky130_fd_sc_hd__fill_1
XFILLER_10_108 VGND VGND VPWR VPWR sky130_fd_sc_hd__fill_1
Xmux_bottom_track_9.mux_l4_in_0_ mux_bottom_track_9.mux_l3_in_1_/X mux_bottom_track_9.mux_l3_in_0_/X
+ mux_bottom_track_9.mux_l4_in_0_/S VGND VGND VPWR VPWR mux_bottom_track_9.mux_l4_in_0_/X
+ sky130_fd_sc_hd__mux2_1
Xmem_left_track_21.sky130_fd_sc_hd__dfxtp_1_1_ clkbuf_3_3_0_mem_bottom_track_1.prog_clk/X
+ mux_left_track_21.mux_l1_in_0_/S VGND VGND VPWR VPWR mux_left_track_21.mux_l2_in_0_/S
+ sky130_fd_sc_hd__dfxtp_1
XFILLER_23_25 VGND VGND VPWR VPWR sky130_fd_sc_hd__decap_8
XFILLER_4_93 VGND VGND VPWR VPWR sky130_fd_sc_hd__fill_1
XFILLER_9_49 VGND VGND VPWR VPWR sky130_fd_sc_hd__fill_1
Xmem_bottom_track_9.sky130_fd_sc_hd__dfxtp_1_0_ clkbuf_3_5_0_mem_bottom_track_1.prog_clk/X
+ mux_bottom_track_5.mux_l4_in_0_/S VGND VGND VPWR VPWR mux_bottom_track_9.mux_l1_in_0_/S
+ sky130_fd_sc_hd__dfxtp_1
XFILLER_0_29 VGND VGND VPWR VPWR sky130_fd_sc_hd__fill_2
XFILLER_0_18 VGND VGND VPWR VPWR sky130_fd_sc_hd__fill_2
XFILLER_1_192 VGND VGND VPWR VPWR sky130_fd_sc_hd__fill_1
Xmux_bottom_track_9.mux_l3_in_1_ mux_bottom_track_9.mux_l2_in_3_/X mux_bottom_track_9.mux_l2_in_2_/X
+ mux_bottom_track_9.mux_l3_in_1_/S VGND VGND VPWR VPWR mux_bottom_track_9.mux_l3_in_1_/X
+ sky130_fd_sc_hd__mux2_1
X_040_ VGND VGND VPWR VPWR _040_/HI _040_/LO sky130_fd_sc_hd__conb_1
Xmem_bottom_track_17.sky130_fd_sc_hd__dfxtp_1_2_ clkbuf_3_5_0_mem_bottom_track_1.prog_clk/X
+ mux_bottom_track_17.mux_l2_in_1_/S VGND VGND VPWR VPWR mux_bottom_track_17.mux_l3_in_0_/S
+ sky130_fd_sc_hd__dfxtp_1
XFILLER_1_3 VGND VGND VPWR VPWR sky130_fd_sc_hd__decap_6
XFILLER_29_24 VGND VGND VPWR VPWR sky130_fd_sc_hd__fill_2
XFILLER_28_166 VGND VGND VPWR VPWR sky130_fd_sc_hd__decap_12
XFILLER_28_100 VGND VGND VPWR VPWR sky130_fd_sc_hd__decap_8
XFILLER_19_177 VGND VGND VPWR VPWR sky130_fd_sc_hd__decap_6
XFILLER_19_111 VGND VGND VPWR VPWR sky130_fd_sc_hd__decap_8
Xmux_bottom_track_9.mux_l2_in_2_ chanx_left_in[11] chanx_left_in[4] mux_bottom_track_9.mux_l2_in_3_/S
+ VGND VGND VPWR VPWR mux_bottom_track_9.mux_l2_in_2_/X sky130_fd_sc_hd__mux2_1
XFILLER_15_59 VGND VGND VPWR VPWR sky130_fd_sc_hd__fill_2
XFILLER_15_48 VGND VGND VPWR VPWR sky130_fd_sc_hd__fill_2
XPHY_186 VGND VPWR sky130_fd_sc_hd__tapvpwrvgnd_1
XPHY_175 VGND VPWR sky130_fd_sc_hd__tapvpwrvgnd_1
XPHY_164 VGND VPWR sky130_fd_sc_hd__tapvpwrvgnd_1
Xmux_left_track_39.mux_l2_in_0_ _043_/HI mux_left_track_39.mux_l1_in_0_/X ccff_tail
+ VGND VGND VPWR VPWR mux_left_track_39.mux_l2_in_0_/X sky130_fd_sc_hd__mux2_1
XPHY_153 VGND VPWR sky130_fd_sc_hd__tapvpwrvgnd_1
XFILLER_21_80 VGND VGND VPWR VPWR sky130_fd_sc_hd__fill_2
XPHY_142 VGND VPWR sky130_fd_sc_hd__tapvpwrvgnd_1
XPHY_131 VGND VPWR sky130_fd_sc_hd__tapvpwrvgnd_1
XPHY_120 VGND VPWR sky130_fd_sc_hd__tapvpwrvgnd_1
XFILLER_30_150 VGND VGND VPWR VPWR sky130_fd_sc_hd__decap_3
XFILLER_22_139 VGND VGND VPWR VPWR sky130_fd_sc_hd__fill_1
XPHY_0 VGND VGND VPWR VPWR sky130_fd_sc_hd__decap_3
XFILLER_13_139 VGND VGND VPWR VPWR sky130_fd_sc_hd__fill_2
Xmux_bottom_track_33.sky130_fd_sc_hd__buf_4_0_ mux_bottom_track_33.mux_l3_in_0_/X
+ VGND VGND VPWR VPWR _102_/A sky130_fd_sc_hd__buf_4
Xmux_bottom_track_25.mux_l3_in_0_ mux_bottom_track_25.mux_l2_in_1_/X mux_bottom_track_25.mux_l2_in_0_/X
+ mux_bottom_track_25.mux_l3_in_0_/S VGND VGND VPWR VPWR mux_bottom_track_25.mux_l3_in_0_/X
+ sky130_fd_sc_hd__mux2_1
XFILLER_8_187 VGND VGND VPWR VPWR sky130_fd_sc_hd__decap_6
Xmem_left_track_21.sky130_fd_sc_hd__dfxtp_1_0_ clkbuf_3_3_0_mem_bottom_track_1.prog_clk/X
+ mux_left_track_19.mux_l2_in_0_/S VGND VGND VPWR VPWR mux_left_track_21.mux_l1_in_0_/S
+ sky130_fd_sc_hd__dfxtp_1
Xmux_top_track_0.mux_l1_in_0_ top_left_grid_pin_44_ top_left_grid_pin_42_ mux_top_track_0.mux_l1_in_1_/S
+ VGND VGND VPWR VPWR mux_top_track_0.mux_l1_in_0_/X sky130_fd_sc_hd__mux2_1
Xmux_bottom_track_25.mux_l2_in_1_ _056_/HI mux_bottom_track_25.mux_l1_in_2_/X mux_bottom_track_25.mux_l2_in_1_/S
+ VGND VGND VPWR VPWR mux_bottom_track_25.mux_l2_in_1_/X sky130_fd_sc_hd__mux2_1
XFILLER_29_6 VGND VGND VPWR VPWR sky130_fd_sc_hd__fill_2
XFILLER_20_215 VGND VGND VPWR VPWR sky130_fd_sc_hd__decap_4
XFILLER_1_182 VGND VGND VPWR VPWR sky130_fd_sc_hd__fill_1
Xmux_bottom_track_9.mux_l3_in_0_ mux_bottom_track_9.mux_l2_in_1_/X mux_bottom_track_9.mux_l2_in_0_/X
+ mux_bottom_track_9.mux_l3_in_1_/S VGND VGND VPWR VPWR mux_bottom_track_9.mux_l3_in_0_/X
+ sky130_fd_sc_hd__mux2_1
XFILLER_18_48 VGND VGND VPWR VPWR sky130_fd_sc_hd__fill_2
Xmem_bottom_track_17.sky130_fd_sc_hd__dfxtp_1_1_ clkbuf_3_5_0_mem_bottom_track_1.prog_clk/X
+ mux_bottom_track_17.mux_l1_in_2_/S VGND VGND VPWR VPWR mux_bottom_track_17.mux_l2_in_1_/S
+ sky130_fd_sc_hd__dfxtp_1
XFILLER_27_3 VGND VGND VPWR VPWR sky130_fd_sc_hd__decap_4
XFILLER_24_91 VGND VGND VPWR VPWR sky130_fd_sc_hd__fill_1
X_099_ chany_top_in[12] VGND VGND VPWR VPWR chany_bottom_out[13] sky130_fd_sc_hd__buf_2
XFILLER_1_62 VGND VGND VPWR VPWR sky130_fd_sc_hd__decap_3
XFILLER_28_178 VGND VGND VPWR VPWR sky130_fd_sc_hd__decap_12
Xclkbuf_3_3_0_mem_bottom_track_1.prog_clk clkbuf_3_3_0_mem_bottom_track_1.prog_clk/A
+ VGND VGND VPWR VPWR clkbuf_3_3_0_mem_bottom_track_1.prog_clk/X sky130_fd_sc_hd__clkbuf_1
XFILLER_19_123 VGND VGND VPWR VPWR sky130_fd_sc_hd__decap_4
XFILLER_13_9 VGND VGND VPWR VPWR sky130_fd_sc_hd__fill_1
Xmux_bottom_track_9.mux_l2_in_1_ bottom_left_grid_pin_49_ bottom_left_grid_pin_45_
+ mux_bottom_track_9.mux_l2_in_3_/S VGND VGND VPWR VPWR mux_bottom_track_9.mux_l2_in_1_/X
+ sky130_fd_sc_hd__mux2_1
XFILLER_3_200 VGND VGND VPWR VPWR sky130_fd_sc_hd__decap_12
Xmux_bottom_track_25.mux_l1_in_2_ chanx_left_in[13] chanx_left_in[6] mux_bottom_track_25.mux_l1_in_2_/S
+ VGND VGND VPWR VPWR mux_bottom_track_25.mux_l1_in_2_/X sky130_fd_sc_hd__mux2_1
XPHY_187 VGND VPWR sky130_fd_sc_hd__tapvpwrvgnd_1
XFILLER_31_37 VGND VGND VPWR VPWR sky130_fd_sc_hd__decap_4
XFILLER_31_26 VGND VGND VPWR VPWR sky130_fd_sc_hd__fill_2
XPHY_176 VGND VPWR sky130_fd_sc_hd__tapvpwrvgnd_1
XPHY_165 VGND VPWR sky130_fd_sc_hd__tapvpwrvgnd_1
XPHY_154 VGND VPWR sky130_fd_sc_hd__tapvpwrvgnd_1
XPHY_143 VGND VPWR sky130_fd_sc_hd__tapvpwrvgnd_1
XPHY_132 VGND VPWR sky130_fd_sc_hd__tapvpwrvgnd_1
XPHY_121 VGND VPWR sky130_fd_sc_hd__tapvpwrvgnd_1
XPHY_110 VGND VPWR sky130_fd_sc_hd__tapvpwrvgnd_1
XFILLER_0_203 VGND VGND VPWR VPWR sky130_fd_sc_hd__decap_4
XFILLER_15_181 VGND VGND VPWR VPWR sky130_fd_sc_hd__fill_2
XPHY_1 VGND VGND VPWR VPWR sky130_fd_sc_hd__decap_3
XFILLER_26_48 VGND VGND VPWR VPWR sky130_fd_sc_hd__decap_4
XFILLER_21_184 VGND VGND VPWR VPWR sky130_fd_sc_hd__decap_12
XFILLER_21_140 VGND VGND VPWR VPWR sky130_fd_sc_hd__fill_2
XFILLER_7_83 VGND VGND VPWR VPWR sky130_fd_sc_hd__decap_4
XFILLER_16_81 VGND VGND VPWR VPWR sky130_fd_sc_hd__fill_2
XFILLER_8_111 VGND VGND VPWR VPWR sky130_fd_sc_hd__fill_1
Xmux_left_track_39.mux_l1_in_0_ left_bottom_grid_pin_41_ chany_top_in[1] mux_left_track_39.mux_l1_in_0_/S
+ VGND VGND VPWR VPWR mux_left_track_39.mux_l1_in_0_/X sky130_fd_sc_hd__mux2_1
XFILLER_32_202 VGND VGND VPWR VPWR sky130_fd_sc_hd__decap_12
XFILLER_23_49 VGND VGND VPWR VPWR sky130_fd_sc_hd__fill_2
XFILLER_1_172 VGND VGND VPWR VPWR sky130_fd_sc_hd__fill_2
Xmux_bottom_track_25.mux_l2_in_0_ mux_bottom_track_25.mux_l1_in_1_/X mux_bottom_track_25.mux_l1_in_0_/X
+ mux_bottom_track_25.mux_l2_in_1_/S VGND VGND VPWR VPWR mux_bottom_track_25.mux_l2_in_0_/X
+ sky130_fd_sc_hd__mux2_1
Xmem_bottom_track_17.sky130_fd_sc_hd__dfxtp_1_0_ clkbuf_3_5_0_mem_bottom_track_1.prog_clk/X
+ mux_bottom_track_9.mux_l4_in_0_/S VGND VGND VPWR VPWR mux_bottom_track_17.mux_l1_in_2_/S
+ sky130_fd_sc_hd__dfxtp_1
X_098_ _098_/A VGND VGND VPWR VPWR chany_bottom_out[12] sky130_fd_sc_hd__buf_2
XFILLER_20_39 VGND VGND VPWR VPWR sky130_fd_sc_hd__decap_12
XFILLER_29_59 VGND VGND VPWR VPWR sky130_fd_sc_hd__fill_2
Xmem_top_track_4.sky130_fd_sc_hd__dfxtp_1_3_ clkbuf_3_7_0_mem_bottom_track_1.prog_clk/X
+ mux_top_track_4.mux_l3_in_1_/S VGND VGND VPWR VPWR mux_top_track_4.mux_l4_in_0_/S
+ sky130_fd_sc_hd__dfxtp_1
Xmux_bottom_track_9.mux_l2_in_0_ bottom_right_grid_pin_1_ mux_bottom_track_9.mux_l1_in_0_/X