* NGSPICE file created from sb_2__1_.ext - technology: EFS8A

* Black-box entry subcircuit for scs8hd_fill_2 abstract view
.subckt scs8hd_fill_2 vpwr vgnd
.ends

* Black-box entry subcircuit for scs8hd_decap_12 abstract view
.subckt scs8hd_decap_12 vgnd vpwr
.ends

* Black-box entry subcircuit for scs8hd_decap_3 abstract view
.subckt scs8hd_decap_3 vgnd vpwr
.ends

* Black-box entry subcircuit for scs8hd_dfxbp_1 abstract view
.subckt scs8hd_dfxbp_1 CLK D Q QN vgnd vpwr
.ends

* Black-box entry subcircuit for scs8hd_buf_1 abstract view
.subckt scs8hd_buf_1 A X vgnd vpwr
.ends

* Black-box entry subcircuit for scs8hd_decap_4 abstract view
.subckt scs8hd_decap_4 vgnd vpwr
.ends

* Black-box entry subcircuit for scs8hd_diode_2 abstract view
.subckt scs8hd_diode_2 DIODE vgnd vpwr
.ends

* Black-box entry subcircuit for scs8hd_mux2_1 abstract view
.subckt scs8hd_mux2_1 A0 A1 S X vgnd vpwr
.ends

* Black-box entry subcircuit for scs8hd_decap_8 abstract view
.subckt scs8hd_decap_8 vgnd vpwr
.ends

* Black-box entry subcircuit for scs8hd_fill_1 abstract view
.subckt scs8hd_fill_1 vgnd vpwr
.ends

* Black-box entry subcircuit for scs8hd_buf_2 abstract view
.subckt scs8hd_buf_2 A X vgnd vpwr
.ends

* Black-box entry subcircuit for scs8hd_decap_6 abstract view
.subckt scs8hd_decap_6 vgnd vpwr
.ends

* Black-box entry subcircuit for scs8hd_conb_1 abstract view
.subckt scs8hd_conb_1 HI LO vgnd vpwr
.ends

* Black-box entry subcircuit for scs8hd_tapvpwrvgnd_1 abstract view
.subckt scs8hd_tapvpwrvgnd_1 vgnd vpwr
.ends

.subckt sb_2__1_ bottom_left_grid_pin_34_ bottom_left_grid_pin_35_ bottom_left_grid_pin_36_
+ bottom_left_grid_pin_37_ bottom_left_grid_pin_38_ bottom_left_grid_pin_39_ bottom_left_grid_pin_40_
+ bottom_left_grid_pin_41_ bottom_right_grid_pin_1_ ccff_head ccff_tail chanx_left_in[0]
+ chanx_left_in[10] chanx_left_in[11] chanx_left_in[12] chanx_left_in[13] chanx_left_in[14]
+ chanx_left_in[15] chanx_left_in[16] chanx_left_in[17] chanx_left_in[18] chanx_left_in[19]
+ chanx_left_in[1] chanx_left_in[2] chanx_left_in[3] chanx_left_in[4] chanx_left_in[5]
+ chanx_left_in[6] chanx_left_in[7] chanx_left_in[8] chanx_left_in[9] chanx_left_out[0]
+ chanx_left_out[10] chanx_left_out[11] chanx_left_out[12] chanx_left_out[13] chanx_left_out[14]
+ chanx_left_out[15] chanx_left_out[16] chanx_left_out[17] chanx_left_out[18] chanx_left_out[19]
+ chanx_left_out[1] chanx_left_out[2] chanx_left_out[3] chanx_left_out[4] chanx_left_out[5]
+ chanx_left_out[6] chanx_left_out[7] chanx_left_out[8] chanx_left_out[9] chany_bottom_in[0]
+ chany_bottom_in[10] chany_bottom_in[11] chany_bottom_in[12] chany_bottom_in[13]
+ chany_bottom_in[14] chany_bottom_in[15] chany_bottom_in[16] chany_bottom_in[17]
+ chany_bottom_in[18] chany_bottom_in[19] chany_bottom_in[1] chany_bottom_in[2] chany_bottom_in[3]
+ chany_bottom_in[4] chany_bottom_in[5] chany_bottom_in[6] chany_bottom_in[7] chany_bottom_in[8]
+ chany_bottom_in[9] chany_bottom_out[0] chany_bottom_out[10] chany_bottom_out[11]
+ chany_bottom_out[12] chany_bottom_out[13] chany_bottom_out[14] chany_bottom_out[15]
+ chany_bottom_out[16] chany_bottom_out[17] chany_bottom_out[18] chany_bottom_out[19]
+ chany_bottom_out[1] chany_bottom_out[2] chany_bottom_out[3] chany_bottom_out[4]
+ chany_bottom_out[5] chany_bottom_out[6] chany_bottom_out[7] chany_bottom_out[8]
+ chany_bottom_out[9] chany_top_in[0] chany_top_in[10] chany_top_in[11] chany_top_in[12]
+ chany_top_in[13] chany_top_in[14] chany_top_in[15] chany_top_in[16] chany_top_in[17]
+ chany_top_in[18] chany_top_in[19] chany_top_in[1] chany_top_in[2] chany_top_in[3]
+ chany_top_in[4] chany_top_in[5] chany_top_in[6] chany_top_in[7] chany_top_in[8]
+ chany_top_in[9] chany_top_out[0] chany_top_out[10] chany_top_out[11] chany_top_out[12]
+ chany_top_out[13] chany_top_out[14] chany_top_out[15] chany_top_out[16] chany_top_out[17]
+ chany_top_out[18] chany_top_out[19] chany_top_out[1] chany_top_out[2] chany_top_out[3]
+ chany_top_out[4] chany_top_out[5] chany_top_out[6] chany_top_out[7] chany_top_out[8]
+ chany_top_out[9] left_top_grid_pin_42_ left_top_grid_pin_43_ left_top_grid_pin_44_
+ left_top_grid_pin_45_ left_top_grid_pin_46_ left_top_grid_pin_47_ left_top_grid_pin_48_
+ left_top_grid_pin_49_ prog_clk top_left_grid_pin_34_ top_left_grid_pin_35_ top_left_grid_pin_36_
+ top_left_grid_pin_37_ top_left_grid_pin_38_ top_left_grid_pin_39_ top_left_grid_pin_40_
+ top_left_grid_pin_41_ top_right_grid_pin_1_ vpwr vgnd
XFILLER_39_222 vpwr vgnd scs8hd_fill_2
XFILLER_22_199 vgnd vpwr scs8hd_decap_12
XFILLER_22_122 vpwr vgnd scs8hd_fill_2
XFILLER_7_7 vgnd vpwr scs8hd_decap_3
Xmem_left_track_19.scs8hd_dfxbp_1_1_ prog_clk mux_left_track_19.mux_l1_in_0_/S mux_left_track_19.mux_l2_in_0_/S
+ mem_left_track_19.scs8hd_dfxbp_1_1_/QN vgnd vpwr scs8hd_dfxbp_1
XFILLER_26_41 vpwr vgnd scs8hd_fill_2
Xmux_bottom_track_25.scs8hd_buf_4_0_ mux_bottom_track_25.mux_l3_in_0_/X _081_/A vgnd
+ vpwr scs8hd_buf_1
XFILLER_9_126 vgnd vpwr scs8hd_decap_4
XANTENNA_mux_top_track_16.mux_l1_in_2__S mux_top_track_16.mux_l1_in_0_/S vgnd vpwr
+ scs8hd_diode_2
Xmux_bottom_track_3.mux_l1_in_1_ bottom_left_grid_pin_36_ bottom_left_grid_pin_34_
+ mux_bottom_track_3.mux_l1_in_1_/S mux_bottom_track_3.mux_l1_in_1_/X vgnd vpwr scs8hd_mux2_1
XFILLER_3_67 vpwr vgnd scs8hd_fill_2
XFILLER_27_269 vgnd vpwr scs8hd_decap_8
XFILLER_12_43 vpwr vgnd scs8hd_fill_2
XFILLER_37_95 vgnd vpwr scs8hd_fill_1
XFILLER_24_239 vgnd vpwr scs8hd_decap_12
XANTENNA_mem_left_track_21.scs8hd_dfxbp_1_0__CLK prog_clk vgnd vpwr scs8hd_diode_2
XANTENNA_mux_top_track_0.mux_l1_in_0__A0 top_left_grid_pin_36_ vgnd vpwr scs8hd_diode_2
XFILLER_15_217 vgnd vpwr scs8hd_decap_12
X_062_ _062_/A chanx_left_out[11] vgnd vpwr scs8hd_buf_2
XFILLER_23_75 vpwr vgnd scs8hd_fill_2
XFILLER_23_53 vpwr vgnd scs8hd_fill_2
XANTENNA_mux_bottom_track_1.mux_l3_in_0__S mux_bottom_track_1.mux_l3_in_1_/S vgnd
+ vpwr scs8hd_diode_2
XFILLER_0_68 vpwr vgnd scs8hd_fill_2
XFILLER_9_33 vpwr vgnd scs8hd_fill_2
XFILLER_9_99 vgnd vpwr scs8hd_decap_4
Xmux_left_track_13.scs8hd_buf_4_0_ mux_left_track_13.mux_l3_in_0_/X _067_/A vgnd vpwr
+ scs8hd_buf_1
XANTENNA_mem_left_track_5.scs8hd_dfxbp_1_1__CLK prog_clk vgnd vpwr scs8hd_diode_2
XANTENNA_mem_bottom_track_5.scs8hd_dfxbp_1_2__D mux_bottom_track_5.mux_l2_in_3_/S
+ vgnd vpwr scs8hd_diode_2
Xmem_left_track_1.scs8hd_dfxbp_1_2_ prog_clk mux_left_track_1.mux_l2_in_0_/S mux_left_track_1.mux_l3_in_0_/S
+ mem_left_track_1.scs8hd_dfxbp_1_2_/QN vgnd vpwr scs8hd_dfxbp_1
XFILLER_18_86 vgnd vpwr scs8hd_fill_1
XFILLER_7_224 vgnd vpwr scs8hd_decap_6
XFILLER_7_257 vgnd vpwr scs8hd_decap_12
X_045_ _045_/HI _045_/LO vgnd vpwr scs8hd_conb_1
Xmem_bottom_track_3.scs8hd_dfxbp_1_3_ prog_clk mux_bottom_track_3.mux_l3_in_0_/S mux_bottom_track_3.mux_l4_in_0_/S
+ mem_bottom_track_3.scs8hd_dfxbp_1_3_/QN vgnd vpwr scs8hd_dfxbp_1
XANTENNA_mux_bottom_track_25.mux_l3_in_0__S mux_bottom_track_25.mux_l3_in_0_/S vgnd
+ vpwr scs8hd_diode_2
XFILLER_37_172 vpwr vgnd scs8hd_fill_2
XFILLER_37_161 vpwr vgnd scs8hd_fill_2
Xmux_bottom_track_17.mux_l1_in_0_ chany_top_in[17] chany_top_in[8] mux_bottom_track_17.mux_l1_in_3_/S
+ mux_bottom_track_17.mux_l1_in_0_/X vgnd vpwr scs8hd_mux2_1
XANTENNA_mux_left_track_17.mux_l2_in_0__S mux_left_track_17.mux_l2_in_0_/S vgnd vpwr
+ scs8hd_diode_2
XFILLER_4_205 vpwr vgnd scs8hd_fill_2
XFILLER_4_227 vgnd vpwr scs8hd_decap_12
XFILLER_20_10 vpwr vgnd scs8hd_fill_2
XFILLER_20_32 vpwr vgnd scs8hd_fill_2
XFILLER_29_30 vpwr vgnd scs8hd_fill_2
X_028_ _028_/HI _028_/LO vgnd vpwr scs8hd_conb_1
XFILLER_34_131 vpwr vgnd scs8hd_fill_2
Xmux_bottom_track_33.scs8hd_buf_4_0_ mux_bottom_track_33.mux_l3_in_0_/X _077_/A vgnd
+ vpwr scs8hd_buf_1
XFILLER_25_164 vpwr vgnd scs8hd_fill_2
XFILLER_15_32 vpwr vgnd scs8hd_fill_2
XFILLER_40_145 vgnd vpwr scs8hd_decap_8
XFILLER_40_123 vgnd vpwr scs8hd_decap_12
XFILLER_31_53 vpwr vgnd scs8hd_fill_2
XFILLER_31_42 vpwr vgnd scs8hd_fill_2
XFILLER_31_97 vgnd vpwr scs8hd_decap_4
XANTENNA_mux_bottom_track_3.mux_l1_in_1__A0 bottom_left_grid_pin_36_ vgnd vpwr scs8hd_diode_2
XFILLER_31_134 vpwr vgnd scs8hd_fill_2
XFILLER_31_123 vpwr vgnd scs8hd_fill_2
XFILLER_31_101 vgnd vpwr scs8hd_fill_1
XFILLER_16_120 vgnd vpwr scs8hd_decap_3
XANTENNA_mux_top_track_0.mux_l2_in_1__S mux_top_track_0.mux_l2_in_1_/S vgnd vpwr scs8hd_diode_2
XPHY_170 vgnd vpwr scs8hd_tapvpwrvgnd_1
XANTENNA_mux_left_track_7.mux_l1_in_0__S mux_left_track_7.mux_l1_in_2_/S vgnd vpwr
+ scs8hd_diode_2
XPHY_192 vgnd vpwr scs8hd_tapvpwrvgnd_1
XPHY_181 vgnd vpwr scs8hd_tapvpwrvgnd_1
XFILLER_22_145 vgnd vpwr scs8hd_decap_4
Xmem_left_track_19.scs8hd_dfxbp_1_0_ prog_clk mux_left_track_17.mux_l2_in_0_/S mux_left_track_19.mux_l1_in_0_/S
+ mem_left_track_19.scs8hd_dfxbp_1_0_/QN vgnd vpwr scs8hd_dfxbp_1
XFILLER_26_75 vpwr vgnd scs8hd_fill_2
XFILLER_13_101 vpwr vgnd scs8hd_fill_2
XFILLER_13_123 vgnd vpwr scs8hd_decap_4
XFILLER_13_134 vpwr vgnd scs8hd_fill_2
XFILLER_42_63 vgnd vpwr scs8hd_decap_12
XFILLER_9_149 vgnd vpwr scs8hd_decap_3
XFILLER_3_57 vpwr vgnd scs8hd_fill_2
Xmux_bottom_track_3.mux_l1_in_0_ chany_top_in[13] chany_top_in[4] mux_bottom_track_3.mux_l1_in_1_/S
+ mux_bottom_track_3.mux_l1_in_0_/X vgnd vpwr scs8hd_mux2_1
XFILLER_36_215 vgnd vpwr scs8hd_decap_12
XANTENNA_mem_top_track_8.scs8hd_dfxbp_1_2__D mux_top_track_8.mux_l2_in_0_/S vgnd vpwr
+ scs8hd_diode_2
XFILLER_42_218 vgnd vpwr scs8hd_decap_12
XFILLER_12_88 vpwr vgnd scs8hd_fill_2
XANTENNA_mux_bottom_track_3.mux_l2_in_0__A0 mux_bottom_track_3.mux_l1_in_1_/X vgnd
+ vpwr scs8hd_diode_2
XANTENNA_mem_top_track_4.scs8hd_dfxbp_1_0__CLK prog_clk vgnd vpwr scs8hd_diode_2
XFILLER_18_215 vgnd vpwr scs8hd_decap_12
Xmux_left_track_21.scs8hd_buf_4_0_ mux_left_track_21.mux_l2_in_0_/X _063_/A vgnd vpwr
+ scs8hd_buf_1
XFILLER_32_251 vgnd vpwr scs8hd_decap_12
XFILLER_23_10 vpwr vgnd scs8hd_fill_2
XANTENNA_mux_top_track_0.mux_l1_in_0__A1 top_left_grid_pin_34_ vgnd vpwr scs8hd_diode_2
XFILLER_15_229 vgnd vpwr scs8hd_decap_12
X_061_ _061_/A chanx_left_out[12] vgnd vpwr scs8hd_buf_2
XANTENNA_mux_bottom_track_1.mux_l2_in_2__A0 chanx_left_in[8] vgnd vpwr scs8hd_diode_2
XFILLER_2_188 vpwr vgnd scs8hd_fill_2
XFILLER_2_166 vgnd vpwr scs8hd_fill_1
XFILLER_9_12 vpwr vgnd scs8hd_fill_2
XFILLER_9_78 vpwr vgnd scs8hd_fill_2
XFILLER_14_251 vgnd vpwr scs8hd_decap_12
XFILLER_20_276 vgnd vpwr scs8hd_fill_1
Xmem_left_track_1.scs8hd_dfxbp_1_1_ prog_clk mux_left_track_1.mux_l1_in_0_/S mux_left_track_1.mux_l2_in_0_/S
+ mem_left_track_1.scs8hd_dfxbp_1_1_/QN vgnd vpwr scs8hd_dfxbp_1
XFILLER_18_65 vpwr vgnd scs8hd_fill_2
X_113_ _113_/A chany_top_out[0] vgnd vpwr scs8hd_buf_2
XFILLER_7_203 vpwr vgnd scs8hd_fill_2
XFILLER_11_221 vgnd vpwr scs8hd_decap_12
XFILLER_7_269 vgnd vpwr scs8hd_decap_8
X_044_ _044_/HI _044_/LO vgnd vpwr scs8hd_conb_1
XANTENNA_mux_top_track_24.mux_l1_in_0__S mux_top_track_24.mux_l1_in_0_/S vgnd vpwr
+ scs8hd_diode_2
XANTENNA_mux_left_track_7.mux_l1_in_3__S mux_left_track_7.mux_l1_in_2_/S vgnd vpwr
+ scs8hd_diode_2
XANTENNA_mux_left_track_5.mux_l3_in_0__S mux_left_track_5.mux_l3_in_0_/S vgnd vpwr
+ scs8hd_diode_2
Xmem_bottom_track_3.scs8hd_dfxbp_1_2_ prog_clk mux_bottom_track_3.mux_l2_in_0_/S mux_bottom_track_3.mux_l3_in_0_/S
+ mem_bottom_track_3.scs8hd_dfxbp_1_2_/QN vgnd vpwr scs8hd_dfxbp_1
XFILLER_29_118 vpwr vgnd scs8hd_fill_2
XFILLER_37_184 vpwr vgnd scs8hd_fill_2
XANTENNA_mux_bottom_track_1.mux_l3_in_1__A0 mux_bottom_track_1.mux_l2_in_3_/X vgnd
+ vpwr scs8hd_diode_2
XANTENNA_mem_top_track_32.scs8hd_dfxbp_1_0__D mux_top_track_24.mux_l3_in_0_/S vgnd
+ vpwr scs8hd_diode_2
XFILLER_4_239 vgnd vpwr scs8hd_decap_12
XFILLER_29_53 vpwr vgnd scs8hd_fill_2
X_027_ _027_/HI _027_/LO vgnd vpwr scs8hd_conb_1
XFILLER_6_68 vpwr vgnd scs8hd_fill_2
XFILLER_34_154 vpwr vgnd scs8hd_fill_2
XANTENNA_mem_bottom_track_25.scs8hd_dfxbp_1_2__D mux_bottom_track_25.mux_l2_in_1_/S
+ vgnd vpwr scs8hd_diode_2
Xmux_left_track_7.mux_l1_in_3_ _032_/HI left_top_grid_pin_49_ mux_left_track_7.mux_l1_in_2_/S
+ mux_left_track_7.mux_l1_in_3_/X vgnd vpwr scs8hd_mux2_1
XANTENNA_mux_top_track_8.mux_l4_in_0__S mux_top_track_8.mux_l4_in_0_/S vgnd vpwr scs8hd_diode_2
XFILLER_40_135 vgnd vpwr scs8hd_decap_6
XANTENNA_mem_left_track_21.scs8hd_dfxbp_1_0__D mux_left_track_19.mux_l2_in_0_/S vgnd
+ vpwr scs8hd_diode_2
XFILLER_0_253 vpwr vgnd scs8hd_fill_2
XANTENNA_mem_bottom_track_9.scs8hd_dfxbp_1_0__D mux_bottom_track_5.mux_l4_in_0_/S
+ vgnd vpwr scs8hd_diode_2
XANTENNA_mux_bottom_track_3.mux_l1_in_1__A1 bottom_left_grid_pin_34_ vgnd vpwr scs8hd_diode_2
XPHY_193 vgnd vpwr scs8hd_tapvpwrvgnd_1
XPHY_160 vgnd vpwr scs8hd_tapvpwrvgnd_1
XFILLER_16_154 vpwr vgnd scs8hd_fill_2
XPHY_171 vgnd vpwr scs8hd_tapvpwrvgnd_1
XPHY_182 vgnd vpwr scs8hd_tapvpwrvgnd_1
Xmux_left_track_15.mux_l3_in_0_ mux_left_track_15.mux_l2_in_1_/X mux_left_track_15.mux_l2_in_0_/X
+ mux_left_track_15.mux_l3_in_0_/S mux_left_track_15.mux_l3_in_0_/X vgnd vpwr scs8hd_mux2_1
XANTENNA_mux_bottom_track_1.mux_l4_in_0__A0 mux_bottom_track_1.mux_l3_in_1_/X vgnd
+ vpwr scs8hd_diode_2
XANTENNA_mem_top_track_16.scs8hd_dfxbp_1_0__CLK prog_clk vgnd vpwr scs8hd_diode_2
Xmux_top_track_0.mux_l2_in_3_ _034_/HI chanx_left_in[14] mux_top_track_0.mux_l2_in_1_/S
+ mux_top_track_0.mux_l2_in_3_/X vgnd vpwr scs8hd_mux2_1
XFILLER_22_102 vpwr vgnd scs8hd_fill_2
XFILLER_13_157 vgnd vpwr scs8hd_decap_4
XFILLER_13_179 vpwr vgnd scs8hd_fill_2
XFILLER_42_75 vgnd vpwr scs8hd_decap_12
XFILLER_36_227 vgnd vpwr scs8hd_decap_12
XANTENNA_mux_left_track_21.mux_l1_in_0__S mux_left_track_21.mux_l1_in_0_/S vgnd vpwr
+ scs8hd_diode_2
XFILLER_10_149 vpwr vgnd scs8hd_fill_2
XFILLER_12_23 vpwr vgnd scs8hd_fill_2
XFILLER_12_56 vpwr vgnd scs8hd_fill_2
XANTENNA_mux_bottom_track_3.mux_l2_in_0__A1 mux_bottom_track_3.mux_l1_in_0_/X vgnd
+ vpwr scs8hd_diode_2
XFILLER_37_75 vpwr vgnd scs8hd_fill_2
XFILLER_37_53 vpwr vgnd scs8hd_fill_2
XFILLER_37_42 vpwr vgnd scs8hd_fill_2
XFILLER_33_208 vgnd vpwr scs8hd_decap_12
XFILLER_18_227 vgnd vpwr scs8hd_decap_12
Xmux_left_track_15.mux_l2_in_1_ _051_/HI left_top_grid_pin_45_ mux_left_track_15.mux_l2_in_1_/S
+ mux_left_track_15.mux_l2_in_1_/X vgnd vpwr scs8hd_mux2_1
XANTENNA_mux_top_track_24.mux_l1_in_3__S mux_top_track_24.mux_l1_in_0_/S vgnd vpwr
+ scs8hd_diode_2
XFILLER_5_131 vpwr vgnd scs8hd_fill_2
XFILLER_5_175 vpwr vgnd scs8hd_fill_2
XFILLER_5_197 vpwr vgnd scs8hd_fill_2
Xmux_left_track_7.mux_l3_in_0_ mux_left_track_7.mux_l2_in_1_/X mux_left_track_7.mux_l2_in_0_/X
+ mux_left_track_7.mux_l3_in_0_/S mux_left_track_7.mux_l3_in_0_/X vgnd vpwr scs8hd_mux2_1
XFILLER_32_263 vgnd vpwr scs8hd_decap_12
XANTENNA_mem_left_track_17.scs8hd_dfxbp_1_1__CLK prog_clk vgnd vpwr scs8hd_diode_2
X_060_ left_top_grid_pin_43_ chanx_left_out[13] vgnd vpwr scs8hd_buf_2
XFILLER_3_3 vgnd vpwr scs8hd_decap_4
XFILLER_2_145 vpwr vgnd scs8hd_fill_2
XFILLER_2_134 vpwr vgnd scs8hd_fill_2
XFILLER_2_112 vgnd vpwr scs8hd_decap_3
XANTENNA_mux_bottom_track_1.mux_l2_in_2__A1 chanx_left_in[1] vgnd vpwr scs8hd_diode_2
Xmux_top_track_0.mux_l4_in_0_ mux_top_track_0.mux_l3_in_1_/X mux_top_track_0.mux_l3_in_0_/X
+ mux_top_track_0.mux_l4_in_0_/S mux_top_track_0.mux_l4_in_0_/X vgnd vpwr scs8hd_mux2_1
XANTENNA_mux_top_track_16.mux_l2_in_0__S mux_top_track_16.mux_l2_in_0_/S vgnd vpwr
+ scs8hd_diode_2
XFILLER_0_59 vgnd vpwr scs8hd_decap_3
XFILLER_14_263 vgnd vpwr scs8hd_decap_12
XFILLER_9_57 vpwr vgnd scs8hd_fill_2
Xmem_left_track_9.scs8hd_dfxbp_1_2_ prog_clk mux_left_track_9.mux_l2_in_0_/S mux_left_track_9.mux_l3_in_0_/S
+ mem_left_track_9.scs8hd_dfxbp_1_2_/QN vgnd vpwr scs8hd_dfxbp_1
XANTENNA_mux_left_track_15.scs8hd_buf_4_0__A mux_left_track_15.mux_l3_in_0_/X vgnd
+ vpwr scs8hd_diode_2
XANTENNA__061__A _061_/A vgnd vpwr scs8hd_diode_2
XFILLER_18_22 vpwr vgnd scs8hd_fill_2
XFILLER_18_44 vpwr vgnd scs8hd_fill_2
XFILLER_34_32 vgnd vpwr scs8hd_decap_3
XFILLER_34_10 vpwr vgnd scs8hd_fill_2
Xmem_left_track_1.scs8hd_dfxbp_1_0_ prog_clk mux_bottom_track_33.mux_l3_in_0_/S mux_left_track_1.mux_l1_in_0_/S
+ mem_left_track_1.scs8hd_dfxbp_1_0_/QN vgnd vpwr scs8hd_dfxbp_1
X_112_ _112_/A chany_top_out[1] vgnd vpwr scs8hd_buf_2
XFILLER_34_87 vgnd vpwr scs8hd_decap_4
XFILLER_34_65 vpwr vgnd scs8hd_fill_2
Xmux_left_track_7.mux_l2_in_1_ mux_left_track_7.mux_l1_in_3_/X mux_left_track_7.mux_l1_in_2_/X
+ mux_left_track_7.mux_l2_in_1_/S mux_left_track_7.mux_l2_in_1_/X vgnd vpwr scs8hd_mux2_1
X_043_ _043_/HI _043_/LO vgnd vpwr scs8hd_conb_1
XANTENNA_mem_bottom_track_9.scs8hd_dfxbp_1_3__D mux_bottom_track_9.mux_l3_in_1_/S
+ vgnd vpwr scs8hd_diode_2
XFILLER_7_237 vgnd vpwr scs8hd_decap_6
XFILLER_11_233 vgnd vpwr scs8hd_decap_8
XFILLER_38_108 vgnd vpwr scs8hd_decap_12
Xmem_bottom_track_3.scs8hd_dfxbp_1_1_ prog_clk mux_bottom_track_3.mux_l1_in_1_/S mux_bottom_track_3.mux_l2_in_0_/S
+ mem_bottom_track_3.scs8hd_dfxbp_1_1_/QN vgnd vpwr scs8hd_dfxbp_1
XFILLER_37_130 vpwr vgnd scs8hd_fill_2
XANTENNA_mux_bottom_track_1.mux_l3_in_1__A1 mux_bottom_track_1.mux_l2_in_2_/X vgnd
+ vpwr scs8hd_diode_2
Xmux_top_track_0.mux_l3_in_1_ mux_top_track_0.mux_l2_in_3_/X mux_top_track_0.mux_l2_in_2_/X
+ mux_top_track_0.mux_l3_in_0_/S mux_top_track_0.mux_l3_in_1_/X vgnd vpwr scs8hd_mux2_1
XANTENNA__056__A chany_top_in[7] vgnd vpwr scs8hd_diode_2
XFILLER_20_23 vpwr vgnd scs8hd_fill_2
XFILLER_20_45 vpwr vgnd scs8hd_fill_2
XFILLER_20_89 vgnd vpwr scs8hd_decap_3
XFILLER_29_87 vpwr vgnd scs8hd_fill_2
XFILLER_28_152 vgnd vpwr scs8hd_fill_1
XANTENNA_mux_bottom_track_3.mux_l2_in_1__S mux_bottom_track_3.mux_l2_in_0_/S vgnd
+ vpwr scs8hd_diode_2
XFILLER_20_6 vpwr vgnd scs8hd_fill_2
XFILLER_34_144 vgnd vpwr scs8hd_decap_8
XFILLER_19_152 vpwr vgnd scs8hd_fill_2
Xmux_left_track_7.mux_l1_in_2_ left_top_grid_pin_47_ left_top_grid_pin_45_ mux_left_track_7.mux_l1_in_2_/S
+ mux_left_track_7.mux_l1_in_2_/X vgnd vpwr scs8hd_mux2_1
XFILLER_40_158 vgnd vpwr scs8hd_decap_8
XFILLER_15_12 vgnd vpwr scs8hd_decap_4
XFILLER_31_66 vgnd vpwr scs8hd_decap_3
XFILLER_31_11 vpwr vgnd scs8hd_fill_2
XFILLER_31_114 vpwr vgnd scs8hd_fill_2
XANTENNA_mux_left_track_13.mux_l2_in_0__S mux_left_track_13.mux_l2_in_1_/S vgnd vpwr
+ scs8hd_diode_2
XPHY_194 vgnd vpwr scs8hd_tapvpwrvgnd_1
XANTENNA_mux_bottom_track_1.mux_l4_in_0__A1 mux_bottom_track_1.mux_l3_in_0_/X vgnd
+ vpwr scs8hd_diode_2
XPHY_150 vgnd vpwr scs8hd_tapvpwrvgnd_1
XPHY_161 vgnd vpwr scs8hd_tapvpwrvgnd_1
XFILLER_16_188 vgnd vpwr scs8hd_decap_12
XPHY_172 vgnd vpwr scs8hd_tapvpwrvgnd_1
XPHY_183 vgnd vpwr scs8hd_tapvpwrvgnd_1
XANTENNA_mem_bottom_track_17.scs8hd_dfxbp_1_2__CLK prog_clk vgnd vpwr scs8hd_diode_2
Xmux_top_track_0.mux_l2_in_2_ chanx_left_in[7] chanx_left_in[0] mux_top_track_0.mux_l2_in_1_/S
+ mux_top_track_0.mux_l2_in_2_/X vgnd vpwr scs8hd_mux2_1
XFILLER_39_203 vpwr vgnd scs8hd_fill_2
XFILLER_22_114 vpwr vgnd scs8hd_fill_2
XANTENNA_mux_left_track_19.mux_l1_in_1__S mux_left_track_19.mux_l1_in_0_/S vgnd vpwr
+ scs8hd_diode_2
XFILLER_26_11 vpwr vgnd scs8hd_fill_2
XFILLER_42_87 vgnd vpwr scs8hd_decap_6
XFILLER_42_32 vgnd vpwr scs8hd_decap_12
XFILLER_21_180 vgnd vpwr scs8hd_decap_3
XFILLER_9_118 vpwr vgnd scs8hd_fill_2
XFILLER_13_114 vpwr vgnd scs8hd_fill_2
XFILLER_3_26 vpwr vgnd scs8hd_fill_2
XFILLER_36_239 vgnd vpwr scs8hd_decap_12
XFILLER_8_140 vpwr vgnd scs8hd_fill_2
XFILLER_8_162 vgnd vpwr scs8hd_fill_1
Xmux_bottom_track_5.scs8hd_buf_4_0_ mux_bottom_track_5.mux_l4_in_0_/X _091_/A vgnd
+ vpwr scs8hd_buf_1
XANTENNA_mux_left_track_3.mux_l1_in_0__S mux_left_track_3.mux_l1_in_1_/S vgnd vpwr
+ scs8hd_diode_2
XFILLER_10_128 vgnd vpwr scs8hd_fill_1
XANTENNA__064__A _064_/A vgnd vpwr scs8hd_diode_2
XFILLER_12_35 vpwr vgnd scs8hd_fill_2
XFILLER_12_68 vpwr vgnd scs8hd_fill_2
XFILLER_41_220 vgnd vpwr scs8hd_decap_12
Xmux_left_track_15.mux_l2_in_0_ chany_bottom_in[19] mux_left_track_15.mux_l1_in_0_/X
+ mux_left_track_15.mux_l2_in_1_/S mux_left_track_15.mux_l2_in_0_/X vgnd vpwr scs8hd_mux2_1
XFILLER_18_239 vgnd vpwr scs8hd_decap_12
XANTENNA_mem_left_track_3.scs8hd_dfxbp_1_2__CLK prog_clk vgnd vpwr scs8hd_diode_2
XFILLER_5_154 vgnd vpwr scs8hd_decap_4
XANTENNA_mux_top_track_2.mux_l2_in_0__A0 top_left_grid_pin_39_ vgnd vpwr scs8hd_diode_2
XANTENNA_mem_left_track_1.scs8hd_dfxbp_1_0__CLK prog_clk vgnd vpwr scs8hd_diode_2
XFILLER_4_91 vgnd vpwr scs8hd_fill_1
XANTENNA__059__A chany_top_in[19] vgnd vpwr scs8hd_diode_2
XFILLER_23_220 vgnd vpwr scs8hd_decap_12
XFILLER_23_23 vpwr vgnd scs8hd_fill_2
XFILLER_0_27 vpwr vgnd scs8hd_fill_2
Xmem_left_track_9.scs8hd_dfxbp_1_1_ prog_clk mux_left_track_9.mux_l1_in_0_/S mux_left_track_9.mux_l2_in_0_/S
+ mem_left_track_9.scs8hd_dfxbp_1_1_/QN vgnd vpwr scs8hd_dfxbp_1
XANTENNA_mux_top_track_0.mux_l2_in_2__A0 chanx_left_in[7] vgnd vpwr scs8hd_diode_2
XFILLER_20_212 vpwr vgnd scs8hd_fill_2
XFILLER_34_44 vpwr vgnd scs8hd_fill_2
XFILLER_18_89 vgnd vpwr scs8hd_decap_3
X_111_ _111_/A chany_top_out[2] vgnd vpwr scs8hd_buf_2
Xmux_left_track_7.mux_l2_in_0_ mux_left_track_7.mux_l1_in_1_/X mux_left_track_7.mux_l1_in_0_/X
+ mux_left_track_7.mux_l2_in_1_/S mux_left_track_7.mux_l2_in_0_/X vgnd vpwr scs8hd_mux2_1
XANTENNA_mux_bottom_track_5.mux_l1_in_2__A0 bottom_left_grid_pin_36_ vgnd vpwr scs8hd_diode_2
X_042_ _042_/HI _042_/LO vgnd vpwr scs8hd_conb_1
XFILLER_11_245 vgnd vpwr scs8hd_decap_12
XANTENNA_mem_top_track_16.scs8hd_dfxbp_1_1__D mux_top_track_16.mux_l1_in_0_/S vgnd
+ vpwr scs8hd_diode_2
Xmem_bottom_track_3.scs8hd_dfxbp_1_0_ prog_clk mux_bottom_track_1.mux_l4_in_0_/S mux_bottom_track_3.mux_l1_in_1_/S
+ mem_bottom_track_3.scs8hd_dfxbp_1_0_/QN vgnd vpwr scs8hd_dfxbp_1
XFILLER_37_153 vgnd vpwr scs8hd_fill_1
Xmux_top_track_0.mux_l3_in_0_ mux_top_track_0.mux_l2_in_1_/X mux_top_track_0.mux_l2_in_0_/X
+ mux_top_track_0.mux_l3_in_0_/S mux_top_track_0.mux_l3_in_0_/X vgnd vpwr scs8hd_mux2_1
XFILLER_4_219 vpwr vgnd scs8hd_fill_2
XANTENNA__072__A _072_/A vgnd vpwr scs8hd_diode_2
XFILLER_20_68 vpwr vgnd scs8hd_fill_2
XFILLER_28_142 vpwr vgnd scs8hd_fill_2
XFILLER_6_26 vgnd vpwr scs8hd_fill_1
XANTENNA_mux_top_track_32.mux_l1_in_1__S mux_top_track_32.mux_l1_in_2_/S vgnd vpwr
+ scs8hd_diode_2
XANTENNA_mux_top_track_0.mux_l3_in_1__A0 mux_top_track_0.mux_l2_in_3_/X vgnd vpwr
+ scs8hd_diode_2
XFILLER_34_123 vpwr vgnd scs8hd_fill_2
XFILLER_34_112 vpwr vgnd scs8hd_fill_2
XFILLER_19_175 vpwr vgnd scs8hd_fill_2
XANTENNA_mux_left_track_3.mux_l1_in_3__S mux_left_track_3.mux_l1_in_1_/S vgnd vpwr
+ scs8hd_diode_2
XANTENNA_mux_left_track_1.mux_l3_in_0__S mux_left_track_1.mux_l3_in_0_/S vgnd vpwr
+ scs8hd_diode_2
Xmux_left_track_7.mux_l1_in_1_ left_top_grid_pin_43_ chany_bottom_in[6] mux_left_track_7.mux_l1_in_2_/S
+ mux_left_track_7.mux_l1_in_1_/X vgnd vpwr scs8hd_mux2_1
XFILLER_25_123 vgnd vpwr scs8hd_decap_12
XANTENNA_mux_bottom_track_5.mux_l2_in_1__A0 mux_bottom_track_5.mux_l1_in_3_/X vgnd
+ vpwr scs8hd_diode_2
XANTENNA__067__A _067_/A vgnd vpwr scs8hd_diode_2
XFILLER_25_156 vpwr vgnd scs8hd_fill_2
XFILLER_15_57 vpwr vgnd scs8hd_fill_2
XFILLER_15_68 vpwr vgnd scs8hd_fill_2
XFILLER_31_23 vgnd vpwr scs8hd_decap_4
XANTENNA_mem_top_track_4.scs8hd_dfxbp_1_3__CLK prog_clk vgnd vpwr scs8hd_diode_2
XANTENNA_mem_left_track_25.scs8hd_dfxbp_1_1__D mux_left_track_25.mux_l1_in_0_/S vgnd
+ vpwr scs8hd_diode_2
XFILLER_0_233 vpwr vgnd scs8hd_fill_2
XFILLER_0_222 vgnd vpwr scs8hd_decap_6
XFILLER_0_200 vpwr vgnd scs8hd_fill_2
XFILLER_31_104 vgnd vpwr scs8hd_fill_1
XFILLER_16_145 vpwr vgnd scs8hd_fill_2
XFILLER_16_167 vpwr vgnd scs8hd_fill_2
XPHY_195 vgnd vpwr scs8hd_tapvpwrvgnd_1
XPHY_184 vgnd vpwr scs8hd_tapvpwrvgnd_1
XPHY_140 vgnd vpwr scs8hd_tapvpwrvgnd_1
XPHY_151 vgnd vpwr scs8hd_tapvpwrvgnd_1
XPHY_162 vgnd vpwr scs8hd_tapvpwrvgnd_1
XPHY_173 vgnd vpwr scs8hd_tapvpwrvgnd_1
XANTENNA_mux_left_track_7.mux_l2_in_1__S mux_left_track_7.mux_l2_in_1_/S vgnd vpwr
+ scs8hd_diode_2
Xmux_top_track_0.mux_l2_in_1_ chany_bottom_in[12] mux_top_track_0.mux_l1_in_2_/X mux_top_track_0.mux_l2_in_1_/S
+ mux_top_track_0.mux_l2_in_1_/X vgnd vpwr scs8hd_mux2_1
XFILLER_39_226 vgnd vpwr scs8hd_decap_12
XANTENNA_mem_top_track_2.scs8hd_dfxbp_1_1__CLK prog_clk vgnd vpwr scs8hd_diode_2
XFILLER_30_181 vgnd vpwr scs8hd_decap_12
XANTENNA_mux_left_track_1.mux_l1_in_1__A0 left_top_grid_pin_42_ vgnd vpwr scs8hd_diode_2
XANTENNA_mux_left_track_11.mux_l2_in_0__A0 chany_bottom_in[11] vgnd vpwr scs8hd_diode_2
XFILLER_26_89 vgnd vpwr scs8hd_fill_1
XFILLER_26_45 vpwr vgnd scs8hd_fill_2
XFILLER_26_23 vpwr vgnd scs8hd_fill_2
XANTENNA_mux_bottom_track_3.mux_l2_in_3__A0 _044_/HI vgnd vpwr scs8hd_diode_2
XFILLER_42_44 vgnd vpwr scs8hd_decap_12
XFILLER_42_11 vpwr vgnd scs8hd_fill_2
Xmux_left_track_9.scs8hd_buf_4_0_ mux_left_track_9.mux_l3_in_0_/X _069_/A vgnd vpwr
+ scs8hd_buf_1
XANTENNA_mux_top_track_4.mux_l4_in_0__S mux_top_track_4.mux_l4_in_0_/S vgnd vpwr scs8hd_diode_2
XANTENNA_mux_top_track_0.mux_l4_in_0__A0 mux_top_track_0.mux_l3_in_1_/X vgnd vpwr
+ scs8hd_diode_2
XFILLER_3_49 vpwr vgnd scs8hd_fill_2
XANTENNA_mux_bottom_track_5.mux_l3_in_0__A0 mux_bottom_track_5.mux_l2_in_1_/X vgnd
+ vpwr scs8hd_diode_2
XFILLER_8_185 vpwr vgnd scs8hd_fill_2
XFILLER_12_192 vpwr vgnd scs8hd_fill_2
XFILLER_10_107 vpwr vgnd scs8hd_fill_2
XANTENNA__080__A chany_top_in[12] vgnd vpwr scs8hd_diode_2
XFILLER_37_11 vgnd vpwr scs8hd_decap_4
XFILLER_41_232 vgnd vpwr scs8hd_decap_12
XFILLER_37_99 vgnd vpwr scs8hd_decap_12
XFILLER_37_88 vgnd vpwr scs8hd_decap_4
XFILLER_26_251 vgnd vpwr scs8hd_decap_12
Xmux_top_track_0.mux_l1_in_2_ chany_bottom_in[2] top_right_grid_pin_1_ mux_top_track_0.mux_l1_in_0_/S
+ mux_top_track_0.mux_l1_in_2_/X vgnd vpwr scs8hd_mux2_1
Xmux_top_track_2.scs8hd_buf_4_0_ mux_top_track_2.mux_l4_in_0_/X _112_/A vgnd vpwr
+ scs8hd_buf_1
XANTENNA_mux_top_track_2.mux_l2_in_0__A1 mux_top_track_2.mux_l1_in_0_/X vgnd vpwr
+ scs8hd_diode_2
XANTENNA_mux_left_track_1.mux_l2_in_0__A0 mux_left_track_1.mux_l1_in_1_/X vgnd vpwr
+ scs8hd_diode_2
XFILLER_32_276 vgnd vpwr scs8hd_fill_1
XFILLER_23_232 vgnd vpwr scs8hd_decap_12
XFILLER_23_79 vpwr vgnd scs8hd_fill_2
XFILLER_23_57 vpwr vgnd scs8hd_fill_2
XFILLER_23_35 vgnd vpwr scs8hd_decap_3
XANTENNA__075__A chany_top_in[17] vgnd vpwr scs8hd_diode_2
XFILLER_2_158 vpwr vgnd scs8hd_fill_2
XFILLER_9_37 vgnd vpwr scs8hd_decap_4
XFILLER_14_210 vgnd vpwr scs8hd_decap_4
XFILLER_14_276 vgnd vpwr scs8hd_fill_1
Xmem_left_track_9.scs8hd_dfxbp_1_0_ prog_clk mux_left_track_7.mux_l3_in_0_/S mux_left_track_9.mux_l1_in_0_/S
+ mem_left_track_9.scs8hd_dfxbp_1_0_/QN vgnd vpwr scs8hd_dfxbp_1
XANTENNA_mux_top_track_0.mux_l2_in_2__A1 chanx_left_in[0] vgnd vpwr scs8hd_diode_2
Xmux_left_track_15.mux_l1_in_0_ chany_bottom_in[12] chany_top_in[12] mux_left_track_15.mux_l1_in_0_/S
+ mux_left_track_15.mux_l1_in_0_/X vgnd vpwr scs8hd_mux2_1
X_110_ chany_bottom_in[2] chany_top_out[3] vgnd vpwr scs8hd_buf_2
XFILLER_34_78 vpwr vgnd scs8hd_fill_2
XFILLER_34_23 vpwr vgnd scs8hd_fill_2
XANTENNA_mem_bottom_track_33.scs8hd_dfxbp_1_1__CLK prog_clk vgnd vpwr scs8hd_diode_2
XFILLER_11_257 vgnd vpwr scs8hd_decap_12
X_041_ _041_/HI _041_/LO vgnd vpwr scs8hd_conb_1
XANTENNA_mux_bottom_track_5.mux_l1_in_2__A1 bottom_left_grid_pin_35_ vgnd vpwr scs8hd_diode_2
XANTENNA_mux_top_track_24.mux_l2_in_1__S mux_top_track_24.mux_l2_in_0_/S vgnd vpwr
+ scs8hd_diode_2
XFILLER_37_165 vgnd vpwr scs8hd_decap_4
XFILLER_1_71 vgnd vpwr scs8hd_decap_4
XFILLER_37_176 vpwr vgnd scs8hd_fill_2
XFILLER_4_209 vpwr vgnd scs8hd_fill_2
XFILLER_28_154 vgnd vpwr scs8hd_decap_12
Xmux_bottom_track_9.mux_l2_in_3_ _047_/HI chanx_left_in[18] mux_bottom_track_9.mux_l2_in_3_/S
+ mux_bottom_track_9.mux_l2_in_3_/X vgnd vpwr scs8hd_mux2_1
XANTENNA_mux_top_track_0.mux_l3_in_1__A1 mux_top_track_0.mux_l2_in_2_/X vgnd vpwr
+ scs8hd_diode_2
XFILLER_19_110 vpwr vgnd scs8hd_fill_2
Xmux_left_track_7.mux_l1_in_0_ chany_bottom_in[3] chany_top_in[6] mux_left_track_7.mux_l1_in_2_/S
+ mux_left_track_7.mux_l1_in_0_/X vgnd vpwr scs8hd_mux2_1
XANTENNA_mux_bottom_track_5.mux_l2_in_1__A1 mux_bottom_track_5.mux_l1_in_2_/X vgnd
+ vpwr scs8hd_diode_2
XFILLER_40_105 vgnd vpwr scs8hd_decap_12
XFILLER_25_168 vgnd vpwr scs8hd_decap_12
XANTENNA__083__A chany_top_in[9] vgnd vpwr scs8hd_diode_2
XFILLER_15_36 vpwr vgnd scs8hd_fill_2
XFILLER_31_57 vpwr vgnd scs8hd_fill_2
XFILLER_0_212 vpwr vgnd scs8hd_fill_2
XFILLER_0_245 vgnd vpwr scs8hd_decap_3
XFILLER_31_138 vpwr vgnd scs8hd_fill_2
XPHY_130 vgnd vpwr scs8hd_tapvpwrvgnd_1
XPHY_141 vgnd vpwr scs8hd_tapvpwrvgnd_1
XPHY_152 vgnd vpwr scs8hd_tapvpwrvgnd_1
XPHY_196 vgnd vpwr scs8hd_tapvpwrvgnd_1
XPHY_185 vgnd vpwr scs8hd_tapvpwrvgnd_1
XPHY_163 vgnd vpwr scs8hd_tapvpwrvgnd_1
XPHY_174 vgnd vpwr scs8hd_tapvpwrvgnd_1
Xmux_top_track_0.mux_l2_in_0_ mux_top_track_0.mux_l1_in_1_/X mux_top_track_0.mux_l1_in_0_/X
+ mux_top_track_0.mux_l2_in_1_/S mux_top_track_0.mux_l2_in_0_/X vgnd vpwr scs8hd_mux2_1
XFILLER_39_249 vpwr vgnd scs8hd_fill_2
XFILLER_39_238 vgnd vpwr scs8hd_decap_6
XFILLER_30_193 vgnd vpwr scs8hd_decap_12
XANTENNA_mux_left_track_1.mux_l1_in_1__A1 chany_bottom_in[2] vgnd vpwr scs8hd_diode_2
XANTENNA_mux_left_track_11.mux_l2_in_0__A1 mux_left_track_11.mux_l1_in_0_/X vgnd vpwr
+ scs8hd_diode_2
XFILLER_26_79 vpwr vgnd scs8hd_fill_2
XANTENNA__078__A chany_top_in[14] vgnd vpwr scs8hd_diode_2
XANTENNA_mux_bottom_track_3.mux_l2_in_3__A1 chanx_left_in[16] vgnd vpwr scs8hd_diode_2
XANTENNA_mux_top_track_0.mux_l4_in_0__A1 mux_top_track_0.mux_l3_in_0_/X vgnd vpwr
+ scs8hd_diode_2
XFILLER_42_56 vgnd vpwr scs8hd_decap_6
XFILLER_42_23 vgnd vpwr scs8hd_decap_8
XANTENNA_mem_left_track_15.scs8hd_dfxbp_1_2__CLK prog_clk vgnd vpwr scs8hd_diode_2
XANTENNA_mux_bottom_track_5.mux_l1_in_2__S mux_bottom_track_5.mux_l1_in_6_/S vgnd
+ vpwr scs8hd_diode_2
XANTENNA_mux_bottom_track_5.mux_l3_in_0__A1 mux_bottom_track_5.mux_l2_in_0_/X vgnd
+ vpwr scs8hd_diode_2
XANTENNA_mem_left_track_13.scs8hd_dfxbp_1_0__CLK prog_clk vgnd vpwr scs8hd_diode_2
XFILLER_27_208 vgnd vpwr scs8hd_decap_12
XANTENNA_mux_bottom_track_9.mux_l2_in_0__S mux_bottom_track_9.mux_l2_in_3_/S vgnd
+ vpwr scs8hd_diode_2
Xmux_bottom_track_9.mux_l4_in_0_ mux_bottom_track_9.mux_l3_in_1_/X mux_bottom_track_9.mux_l3_in_0_/X
+ mux_bottom_track_9.mux_l4_in_0_/S mux_bottom_track_9.mux_l4_in_0_/X vgnd vpwr scs8hd_mux2_1
XFILLER_26_263 vgnd vpwr scs8hd_decap_12
Xmux_top_track_0.mux_l1_in_1_ top_left_grid_pin_40_ top_left_grid_pin_38_ mux_top_track_0.mux_l1_in_0_/S