* NGSPICE file created from sb_2__1_.ext - technology: sky130A

* Black-box entry subcircuit for sky130_fd_sc_hd__decap_8 abstract view
.subckt sky130_fd_sc_hd__decap_8 VGND VNB VPB VPWR
.ends

* Black-box entry subcircuit for sky130_fd_sc_hd__decap_12 abstract view
.subckt sky130_fd_sc_hd__decap_12 VGND VNB VPB VPWR
.ends

* Black-box entry subcircuit for sky130_fd_sc_hd__decap_4 abstract view
.subckt sky130_fd_sc_hd__decap_4 VGND VNB VPB VPWR
.ends

* Black-box entry subcircuit for sky130_fd_sc_hd__dfxtp_1 abstract view
.subckt sky130_fd_sc_hd__dfxtp_1 D Q CLK VGND VNB VPB VPWR
.ends

* Black-box entry subcircuit for sky130_fd_sc_hd__mux2_1 abstract view
.subckt sky130_fd_sc_hd__mux2_1 A0 A1 S X VGND VNB VPB VPWR
.ends

* Black-box entry subcircuit for sky130_fd_sc_hd__conb_1 abstract view
.subckt sky130_fd_sc_hd__conb_1 HI LO VGND VNB VPB VPWR
.ends

* Black-box entry subcircuit for sky130_fd_sc_hd__clkbuf_1 abstract view
.subckt sky130_fd_sc_hd__clkbuf_1 A X VGND VNB VPB VPWR
.ends

* Black-box entry subcircuit for sky130_fd_sc_hd__buf_2 abstract view
.subckt sky130_fd_sc_hd__buf_2 A X VGND VNB VPB VPWR
.ends

* Black-box entry subcircuit for sky130_fd_sc_hd__decap_3 abstract view
.subckt sky130_fd_sc_hd__decap_3 VGND VNB VPB VPWR
.ends

* Black-box entry subcircuit for sky130_fd_sc_hd__diode_2 abstract view
.subckt sky130_fd_sc_hd__diode_2 DIODE VGND VNB VPB VPWR
.ends

* Black-box entry subcircuit for sky130_fd_sc_hd__tapvpwrvgnd_1 abstract view
.subckt sky130_fd_sc_hd__tapvpwrvgnd_1 VGND VPWR
.ends

* Black-box entry subcircuit for sky130_fd_sc_hd__fill_1 abstract view
.subckt sky130_fd_sc_hd__fill_1 VGND VNB VPB VPWR
.ends

* Black-box entry subcircuit for sky130_fd_sc_hd__buf_4 abstract view
.subckt sky130_fd_sc_hd__buf_4 A X VGND VNB VPB VPWR
.ends

* Black-box entry subcircuit for sky130_fd_sc_hd__decap_6 abstract view
.subckt sky130_fd_sc_hd__decap_6 VGND VNB VPB VPWR
.ends

* Black-box entry subcircuit for sky130_fd_sc_hd__fill_2 abstract view
.subckt sky130_fd_sc_hd__fill_2 VGND VNB VPB VPWR
.ends

* Black-box entry subcircuit for sky130_fd_sc_hd__clkbuf_16 abstract view
.subckt sky130_fd_sc_hd__clkbuf_16 A X VGND VNB VPB VPWR
.ends

.subckt sb_2__1_ bottom_left_grid_pin_42_ bottom_left_grid_pin_43_ bottom_left_grid_pin_44_
+ bottom_left_grid_pin_45_ bottom_left_grid_pin_46_ bottom_left_grid_pin_47_ bottom_left_grid_pin_48_
+ bottom_left_grid_pin_49_ bottom_right_grid_pin_1_ ccff_head ccff_tail chanx_left_in[0]
+ chanx_left_in[10] chanx_left_in[11] chanx_left_in[12] chanx_left_in[13] chanx_left_in[14]
+ chanx_left_in[15] chanx_left_in[16] chanx_left_in[17] chanx_left_in[18] chanx_left_in[19]
+ chanx_left_in[1] chanx_left_in[2] chanx_left_in[3] chanx_left_in[4] chanx_left_in[5]
+ chanx_left_in[6] chanx_left_in[7] chanx_left_in[8] chanx_left_in[9] chanx_left_out[0]
+ chanx_left_out[10] chanx_left_out[11] chanx_left_out[12] chanx_left_out[13] chanx_left_out[14]
+ chanx_left_out[15] chanx_left_out[16] chanx_left_out[17] chanx_left_out[18] chanx_left_out[19]
+ chanx_left_out[1] chanx_left_out[2] chanx_left_out[3] chanx_left_out[4] chanx_left_out[5]
+ chanx_left_out[6] chanx_left_out[7] chanx_left_out[8] chanx_left_out[9] chany_bottom_in[0]
+ chany_bottom_in[10] chany_bottom_in[11] chany_bottom_in[12] chany_bottom_in[13]
+ chany_bottom_in[14] chany_bottom_in[15] chany_bottom_in[16] chany_bottom_in[17]
+ chany_bottom_in[18] chany_bottom_in[19] chany_bottom_in[1] chany_bottom_in[2] chany_bottom_in[3]
+ chany_bottom_in[4] chany_bottom_in[5] chany_bottom_in[6] chany_bottom_in[7] chany_bottom_in[8]
+ chany_bottom_in[9] chany_bottom_out[0] chany_bottom_out[10] chany_bottom_out[11]
+ chany_bottom_out[12] chany_bottom_out[13] chany_bottom_out[14] chany_bottom_out[15]
+ chany_bottom_out[16] chany_bottom_out[17] chany_bottom_out[18] chany_bottom_out[19]
+ chany_bottom_out[1] chany_bottom_out[2] chany_bottom_out[3] chany_bottom_out[4]
+ chany_bottom_out[5] chany_bottom_out[6] chany_bottom_out[7] chany_bottom_out[8]
+ chany_bottom_out[9] chany_top_in[0] chany_top_in[10] chany_top_in[11] chany_top_in[12]
+ chany_top_in[13] chany_top_in[14] chany_top_in[15] chany_top_in[16] chany_top_in[17]
+ chany_top_in[18] chany_top_in[19] chany_top_in[1] chany_top_in[2] chany_top_in[3]
+ chany_top_in[4] chany_top_in[5] chany_top_in[6] chany_top_in[7] chany_top_in[8]
+ chany_top_in[9] chany_top_out[0] chany_top_out[10] chany_top_out[11] chany_top_out[12]
+ chany_top_out[13] chany_top_out[14] chany_top_out[15] chany_top_out[16] chany_top_out[17]
+ chany_top_out[18] chany_top_out[19] chany_top_out[1] chany_top_out[2] chany_top_out[3]
+ chany_top_out[4] chany_top_out[5] chany_top_out[6] chany_top_out[7] chany_top_out[8]
+ chany_top_out[9] left_bottom_grid_pin_34_ left_bottom_grid_pin_35_ left_bottom_grid_pin_36_
+ left_bottom_grid_pin_37_ left_bottom_grid_pin_38_ left_bottom_grid_pin_39_ left_bottom_grid_pin_40_
+ left_bottom_grid_pin_41_ prog_clk top_left_grid_pin_42_ top_left_grid_pin_43_ top_left_grid_pin_44_
+ top_left_grid_pin_45_ top_left_grid_pin_46_ top_left_grid_pin_47_ top_left_grid_pin_48_
+ top_left_grid_pin_49_ top_right_grid_pin_1_ VPWR VGND
XFILLER_22_133 VGND VGND VPWR VPWR sky130_fd_sc_hd__decap_8
XFILLER_26_41 VGND VGND VPWR VPWR sky130_fd_sc_hd__decap_12
XFILLER_13_144 VGND VGND VPWR VPWR sky130_fd_sc_hd__decap_4
XFILLER_13_133 VGND VGND VPWR VPWR sky130_fd_sc_hd__decap_8
Xmem_left_track_17.sky130_fd_sc_hd__dfxtp_1_0_ mux_left_track_15.mux_l3_in_0_/S mux_left_track_17.mux_l1_in_0_/S
+ mem_left_track_17.sky130_fd_sc_hd__dfxtp_1_0_/CLK VGND VGND VPWR VPWR sky130_fd_sc_hd__dfxtp_1
Xmux_bottom_track_3.mux_l1_in_1_ bottom_left_grid_pin_44_ bottom_left_grid_pin_42_
+ mux_bottom_track_3.mux_l1_in_0_/S mux_bottom_track_3.mux_l1_in_1_/X VGND VGND VPWR
+ VPWR sky130_fd_sc_hd__mux2_1
X_062_ _062_/HI _062_/LO VGND VGND VPWR VPWR sky130_fd_sc_hd__conb_1
XFILLER_23_97 VGND VGND VPWR VPWR sky130_fd_sc_hd__decap_8
XFILLER_12_209 VGND VGND VPWR VPWR sky130_fd_sc_hd__decap_4
Xclkbuf_3_4_0_prog_clk clkbuf_2_2_0_prog_clk/X clkbuf_3_4_0_prog_clk/X VGND VGND VPWR
+ VPWR sky130_fd_sc_hd__clkbuf_1
X_114_ chany_bottom_in[10] chany_top_out[11] VGND VGND VPWR VPWR sky130_fd_sc_hd__buf_2
XFILLER_18_20 VGND VGND VPWR VPWR sky130_fd_sc_hd__decap_8
X_045_ _045_/HI _045_/LO VGND VGND VPWR VPWR sky130_fd_sc_hd__conb_1
Xmem_bottom_track_25.sky130_fd_sc_hd__dfxtp_1_2_ mux_bottom_track_25.mux_l2_in_1_/S
+ mux_bottom_track_25.mux_l3_in_0_/S mem_bottom_track_25.sky130_fd_sc_hd__dfxtp_1_2_/CLK
+ VGND VGND VPWR VPWR sky130_fd_sc_hd__dfxtp_1
Xmux_bottom_track_17.mux_l1_in_0_ chany_top_in[17] chany_top_in[8] mux_bottom_track_17.mux_l1_in_2_/S
+ mux_bottom_track_17.mux_l1_in_0_/X VGND VGND VPWR VPWR sky130_fd_sc_hd__mux2_1
XFILLER_20_54 VGND VGND VPWR VPWR sky130_fd_sc_hd__decap_3
XANTENNA_5 chany_bottom_in[19] VGND VGND VPWR VPWR sky130_fd_sc_hd__diode_2
XFILLER_6_78 VGND VGND VPWR VPWR sky130_fd_sc_hd__decap_3
XFILLER_15_43 VGND VGND VPWR VPWR sky130_fd_sc_hd__decap_12
XPHY_192 VGND VPWR sky130_fd_sc_hd__tapvpwrvgnd_1
XPHY_181 VGND VPWR sky130_fd_sc_hd__tapvpwrvgnd_1
XFILLER_31_97 VGND VGND VPWR VPWR sky130_fd_sc_hd__fill_1
XPHY_170 VGND VPWR sky130_fd_sc_hd__tapvpwrvgnd_1
XFILLER_16_186 VGND VGND VPWR VPWR sky130_fd_sc_hd__decap_8
Xmux_bottom_track_3.sky130_fd_sc_hd__buf_4_0_ mux_bottom_track_3.mux_l4_in_0_/X _104_/A
+ VGND VGND VPWR VPWR sky130_fd_sc_hd__buf_4
XFILLER_22_178 VGND VGND VPWR VPWR sky130_fd_sc_hd__decap_8
XFILLER_22_145 VGND VGND VPWR VPWR sky130_fd_sc_hd__decap_8
Xmem_bottom_track_3.sky130_fd_sc_hd__dfxtp_1_3_ mux_bottom_track_3.mux_l3_in_1_/S
+ mux_bottom_track_3.mux_l4_in_0_/S clkbuf_3_4_0_prog_clk/X VGND VGND VPWR VPWR sky130_fd_sc_hd__dfxtp_1
XFILLER_26_97 VGND VGND VPWR VPWR sky130_fd_sc_hd__fill_1
XFILLER_26_53 VGND VGND VPWR VPWR sky130_fd_sc_hd__decap_4
XFILLER_13_123 VGND VGND VPWR VPWR sky130_fd_sc_hd__fill_1
Xmux_bottom_track_3.mux_l1_in_0_ chany_top_in[13] chany_top_in[4] mux_bottom_track_3.mux_l1_in_0_/S
+ mux_bottom_track_3.mux_l1_in_0_/X VGND VGND VPWR VPWR sky130_fd_sc_hd__mux2_1
XFILLER_33_218 VGND VGND VPWR VPWR sky130_fd_sc_hd__decap_4
XFILLER_18_215 VGND VGND VPWR VPWR sky130_fd_sc_hd__decap_8
XFILLER_5_163 VGND VGND VPWR VPWR sky130_fd_sc_hd__decap_8
XFILLER_23_21 VGND VGND VPWR VPWR sky130_fd_sc_hd__decap_8
X_061_ _061_/HI _061_/LO VGND VGND VPWR VPWR sky130_fd_sc_hd__conb_1
XFILLER_2_166 VGND VGND VPWR VPWR sky130_fd_sc_hd__fill_1
XFILLER_2_188 VGND VGND VPWR VPWR sky130_fd_sc_hd__decap_12
XFILLER_9_78 VGND VGND VPWR VPWR sky130_fd_sc_hd__decap_8
XFILLER_9_89 VGND VGND VPWR VPWR sky130_fd_sc_hd__decap_8
Xmux_left_track_9.sky130_fd_sc_hd__buf_4_0_ mux_left_track_9.mux_l3_in_0_/X _081_/A
+ VGND VGND VPWR VPWR sky130_fd_sc_hd__buf_4
XFILLER_18_32 VGND VGND VPWR VPWR sky130_fd_sc_hd__fill_1
X_044_ _044_/HI _044_/LO VGND VGND VPWR VPWR sky130_fd_sc_hd__conb_1
X_113_ _113_/A chany_top_out[12] VGND VGND VPWR VPWR sky130_fd_sc_hd__buf_2
Xmem_bottom_track_25.sky130_fd_sc_hd__dfxtp_1_1_ mux_bottom_track_25.mux_l1_in_2_/S
+ mux_bottom_track_25.mux_l2_in_1_/S clkbuf_3_5_0_prog_clk/X VGND VGND VPWR VPWR sky130_fd_sc_hd__dfxtp_1
XFILLER_29_53 VGND VGND VPWR VPWR sky130_fd_sc_hd__decap_8
Xmux_left_track_31.sky130_fd_sc_hd__buf_4_0_ mux_left_track_31.mux_l2_in_0_/X _070_/A
+ VGND VGND VPWR VPWR sky130_fd_sc_hd__buf_4
XFILLER_4_206 VGND VGND VPWR VPWR sky130_fd_sc_hd__decap_8
XANTENNA_6 chany_bottom_in[7] VGND VGND VPWR VPWR sky130_fd_sc_hd__diode_2
Xmem_left_track_35.sky130_fd_sc_hd__dfxtp_1_1_ mux_left_track_35.mux_l1_in_0_/S mux_left_track_35.mux_l2_in_0_/S
+ clkbuf_3_2_0_prog_clk/X VGND VGND VPWR VPWR sky130_fd_sc_hd__dfxtp_1
XFILLER_6_68 VGND VGND VPWR VPWR sky130_fd_sc_hd__fill_1
XFILLER_25_143 VGND VGND VPWR VPWR sky130_fd_sc_hd__decap_8
XFILLER_15_55 VGND VGND VPWR VPWR sky130_fd_sc_hd__decap_6
Xmux_left_track_7.mux_l1_in_3_ _044_/HI left_bottom_grid_pin_41_ mux_left_track_7.mux_l1_in_2_/S
+ mux_left_track_7.mux_l1_in_3_/X VGND VGND VPWR VPWR sky130_fd_sc_hd__mux2_1
XPHY_193 VGND VPWR sky130_fd_sc_hd__tapvpwrvgnd_1
XPHY_182 VGND VPWR sky130_fd_sc_hd__tapvpwrvgnd_1
XPHY_171 VGND VPWR sky130_fd_sc_hd__tapvpwrvgnd_1
XPHY_160 VGND VPWR sky130_fd_sc_hd__tapvpwrvgnd_1
Xmux_top_track_0.mux_l2_in_3_ _046_/HI chanx_left_in[14] mux_top_track_0.mux_l2_in_3_/S
+ mux_top_track_0.mux_l2_in_3_/X VGND VGND VPWR VPWR sky130_fd_sc_hd__mux2_1
Xmux_left_track_15.mux_l3_in_0_ mux_left_track_15.mux_l2_in_1_/X mux_left_track_15.mux_l2_in_0_/X
+ mux_left_track_15.mux_l3_in_0_/S mux_left_track_15.mux_l3_in_0_/X VGND VGND VPWR
+ VPWR sky130_fd_sc_hd__mux2_1
XFILLER_22_168 VGND VGND VPWR VPWR sky130_fd_sc_hd__fill_1
XFILLER_22_113 VGND VGND VPWR VPWR sky130_fd_sc_hd__decap_4
Xmux_left_track_25.sky130_fd_sc_hd__buf_4_0_ mux_left_track_25.mux_l2_in_0_/X _073_/A
+ VGND VGND VPWR VPWR sky130_fd_sc_hd__buf_4
Xmem_bottom_track_3.sky130_fd_sc_hd__dfxtp_1_2_ mux_bottom_track_3.mux_l2_in_3_/S
+ mux_bottom_track_3.mux_l3_in_1_/S clkbuf_3_4_0_prog_clk/X VGND VGND VPWR VPWR sky130_fd_sc_hd__dfxtp_1
XFILLER_21_190 VGND VGND VPWR VPWR sky130_fd_sc_hd__decap_8
XFILLER_7_9 VGND VGND VPWR VPWR sky130_fd_sc_hd__fill_1
XFILLER_9_139 VGND VGND VPWR VPWR sky130_fd_sc_hd__decap_12
XFILLER_12_56 VGND VGND VPWR VPWR sky130_fd_sc_hd__decap_8
XFILLER_12_12 VGND VGND VPWR VPWR sky130_fd_sc_hd__fill_2
XFILLER_6_109 VGND VGND VPWR VPWR sky130_fd_sc_hd__decap_8
Xmux_left_track_7.mux_l3_in_0_ mux_left_track_7.mux_l2_in_1_/X mux_left_track_7.mux_l2_in_0_/X
+ mux_left_track_7.mux_l3_in_0_/S mux_left_track_7.mux_l3_in_0_/X VGND VGND VPWR VPWR
+ sky130_fd_sc_hd__mux2_1
Xmux_left_track_19.sky130_fd_sc_hd__buf_4_0_ mux_left_track_19.mux_l2_in_0_/X _076_/A
+ VGND VGND VPWR VPWR sky130_fd_sc_hd__buf_4
Xmux_left_track_15.mux_l2_in_1_ _063_/HI left_bottom_grid_pin_37_ mux_left_track_15.mux_l2_in_1_/S
+ mux_left_track_15.mux_l2_in_1_/X VGND VGND VPWR VPWR sky130_fd_sc_hd__mux2_1
XFILLER_5_175 VGND VGND VPWR VPWR sky130_fd_sc_hd__decap_8
X_060_ _060_/HI _060_/LO VGND VGND VPWR VPWR sky130_fd_sc_hd__conb_1
Xmux_top_track_0.mux_l4_in_0_ mux_top_track_0.mux_l3_in_1_/X mux_top_track_0.mux_l3_in_0_/X
+ mux_top_track_0.mux_l4_in_0_/S mux_top_track_0.mux_l4_in_0_/X VGND VGND VPWR VPWR
+ sky130_fd_sc_hd__mux2_1
XFILLER_23_11 VGND VGND VPWR VPWR sky130_fd_sc_hd__fill_1
XFILLER_2_145 VGND VGND VPWR VPWR sky130_fd_sc_hd__decap_8
Xmem_bottom_track_9.sky130_fd_sc_hd__dfxtp_1_3_ mux_bottom_track_9.mux_l3_in_1_/S
+ mux_bottom_track_9.mux_l4_in_0_/S clkbuf_3_5_0_prog_clk/X VGND VGND VPWR VPWR sky130_fd_sc_hd__dfxtp_1
XFILLER_20_211 VGND VGND VPWR VPWR sky130_fd_sc_hd__decap_3
X_112_ chany_bottom_in[12] chany_top_out[13] VGND VGND VPWR VPWR sky130_fd_sc_hd__buf_2
XFILLER_18_66 VGND VGND VPWR VPWR sky130_fd_sc_hd__decap_8
X_043_ _043_/HI _043_/LO VGND VGND VPWR VPWR sky130_fd_sc_hd__conb_1
XFILLER_11_211 VGND VGND VPWR VPWR sky130_fd_sc_hd__decap_12
XFILLER_11_200 VGND VGND VPWR VPWR sky130_fd_sc_hd__decap_8
Xmux_left_track_7.mux_l2_in_1_ mux_left_track_7.mux_l1_in_3_/X mux_left_track_7.mux_l1_in_2_/X
+ mux_left_track_7.mux_l2_in_1_/S mux_left_track_7.mux_l2_in_1_/X VGND VGND VPWR VPWR
+ sky130_fd_sc_hd__mux2_1
Xmem_bottom_track_25.sky130_fd_sc_hd__dfxtp_1_0_ mux_bottom_track_17.mux_l3_in_0_/S
+ mux_bottom_track_25.mux_l1_in_2_/S clkbuf_3_5_0_prog_clk/X VGND VGND VPWR VPWR sky130_fd_sc_hd__dfxtp_1
Xmux_top_track_0.mux_l3_in_1_ mux_top_track_0.mux_l2_in_3_/X mux_top_track_0.mux_l2_in_2_/X
+ mux_top_track_0.mux_l3_in_0_/S mux_top_track_0.mux_l3_in_1_/X VGND VGND VPWR VPWR
+ sky130_fd_sc_hd__mux2_1
XFILLER_29_65 VGND VGND VPWR VPWR sky130_fd_sc_hd__decap_12
XFILLER_28_163 VGND VGND VPWR VPWR sky130_fd_sc_hd__decap_8
Xmem_top_track_16.sky130_fd_sc_hd__dfxtp_1_2_ mux_top_track_16.mux_l2_in_0_/S mux_top_track_16.mux_l3_in_0_/S
+ clkbuf_3_4_0_prog_clk/X VGND VGND VPWR VPWR sky130_fd_sc_hd__dfxtp_1
XANTENNA_7 _045_/HI VGND VGND VPWR VPWR sky130_fd_sc_hd__diode_2
XFILLER_19_163 VGND VGND VPWR VPWR sky130_fd_sc_hd__decap_8
Xmem_left_track_35.sky130_fd_sc_hd__dfxtp_1_0_ mux_left_track_33.mux_l2_in_0_/S mux_left_track_35.mux_l1_in_0_/S
+ mem_left_track_35.sky130_fd_sc_hd__dfxtp_1_0_/CLK VGND VGND VPWR VPWR sky130_fd_sc_hd__dfxtp_1
Xmux_left_track_7.mux_l1_in_2_ left_bottom_grid_pin_39_ left_bottom_grid_pin_37_ mux_left_track_7.mux_l1_in_2_/S
+ mux_left_track_7.mux_l1_in_2_/X VGND VGND VPWR VPWR sky130_fd_sc_hd__mux2_1
XFILLER_15_89 VGND VGND VPWR VPWR sky130_fd_sc_hd__decap_3
XFILLER_15_78 VGND VGND VPWR VPWR sky130_fd_sc_hd__decap_8
XPHY_183 VGND VPWR sky130_fd_sc_hd__tapvpwrvgnd_1
XFILLER_31_169 VGND VGND VPWR VPWR sky130_fd_sc_hd__decap_12
XFILLER_31_114 VGND VGND VPWR VPWR sky130_fd_sc_hd__decap_8
XPHY_172 VGND VPWR sky130_fd_sc_hd__tapvpwrvgnd_1
XPHY_161 VGND VPWR sky130_fd_sc_hd__tapvpwrvgnd_1
Xmux_top_track_0.mux_l2_in_2_ chanx_left_in[7] chanx_left_in[0] mux_top_track_0.mux_l2_in_3_/S
+ mux_top_track_0.mux_l2_in_2_/X VGND VGND VPWR VPWR sky130_fd_sc_hd__mux2_1
XPHY_150 VGND VPWR sky130_fd_sc_hd__tapvpwrvgnd_1
Xclkbuf_2_1_0_prog_clk clkbuf_2_1_0_prog_clk/A clkbuf_3_3_0_prog_clk/A VGND VGND VPWR
+ VPWR sky130_fd_sc_hd__clkbuf_1
XFILLER_30_191 VGND VGND VPWR VPWR sky130_fd_sc_hd__decap_8
XFILLER_30_180 VGND VGND VPWR VPWR sky130_fd_sc_hd__decap_8
Xmem_bottom_track_3.sky130_fd_sc_hd__dfxtp_1_1_ mux_bottom_track_3.mux_l1_in_0_/S
+ mux_bottom_track_3.mux_l2_in_3_/S clkbuf_3_1_0_prog_clk/X VGND VGND VPWR VPWR sky130_fd_sc_hd__dfxtp_1
XFILLER_12_180 VGND VGND VPWR VPWR sky130_fd_sc_hd__decap_8
XFILLER_8_162 VGND VGND VPWR VPWR sky130_fd_sc_hd__fill_2
XFILLER_10_117 VGND VGND VPWR VPWR sky130_fd_sc_hd__fill_2
XFILLER_10_128 VGND VGND VPWR VPWR sky130_fd_sc_hd__decap_8
XFILLER_33_209 VGND VGND VPWR VPWR sky130_fd_sc_hd__decap_8
Xmux_left_track_15.mux_l2_in_0_ chany_bottom_in[19] mux_left_track_15.mux_l1_in_0_/X
+ mux_left_track_15.mux_l2_in_1_/S mux_left_track_15.mux_l2_in_0_/X VGND VGND VPWR
+ VPWR sky130_fd_sc_hd__mux2_1
XFILLER_18_206 VGND VGND VPWR VPWR sky130_fd_sc_hd__decap_8
XFILLER_4_91 VGND VGND VPWR VPWR sky130_fd_sc_hd__fill_1
XFILLER_23_45 VGND VGND VPWR VPWR sky130_fd_sc_hd__decap_12
Xmem_bottom_track_9.sky130_fd_sc_hd__dfxtp_1_2_ mux_bottom_track_9.mux_l2_in_3_/S
+ mux_bottom_track_9.mux_l3_in_1_/S clkbuf_3_5_0_prog_clk/X VGND VGND VPWR VPWR sky130_fd_sc_hd__dfxtp_1
XFILLER_29_3 VGND VGND VPWR VPWR sky130_fd_sc_hd__decap_4
X_111_ chany_bottom_in[13] chany_top_out[14] VGND VGND VPWR VPWR sky130_fd_sc_hd__buf_2
X_042_ _042_/HI _042_/LO VGND VGND VPWR VPWR sky130_fd_sc_hd__conb_1
XFILLER_15_9 VGND VGND VPWR VPWR sky130_fd_sc_hd__fill_1
Xmux_left_track_7.mux_l2_in_0_ mux_left_track_7.mux_l1_in_1_/X mux_left_track_7.mux_l1_in_0_/X
+ mux_left_track_7.mux_l2_in_1_/S mux_left_track_7.mux_l2_in_0_/X VGND VGND VPWR VPWR
+ sky130_fd_sc_hd__mux2_1
Xmux_top_track_0.mux_l3_in_0_ mux_top_track_0.mux_l2_in_1_/X mux_top_track_0.mux_l2_in_0_/X
+ mux_top_track_0.mux_l3_in_0_/S mux_top_track_0.mux_l3_in_0_/X VGND VGND VPWR VPWR
+ sky130_fd_sc_hd__mux2_1
XFILLER_29_11 VGND VGND VPWR VPWR sky130_fd_sc_hd__decap_8
XANTENNA_8 _045_/HI VGND VGND VPWR VPWR sky130_fd_sc_hd__diode_2
Xclkbuf_3_3_0_prog_clk clkbuf_3_3_0_prog_clk/A clkbuf_3_3_0_prog_clk/X VGND VGND VPWR
+ VPWR sky130_fd_sc_hd__clkbuf_1
XFILLER_19_175 VGND VGND VPWR VPWR sky130_fd_sc_hd__decap_8
Xmem_top_track_16.sky130_fd_sc_hd__dfxtp_1_1_ mux_top_track_16.mux_l1_in_0_/S mux_top_track_16.mux_l2_in_0_/S
+ clkbuf_3_5_0_prog_clk/X VGND VGND VPWR VPWR sky130_fd_sc_hd__dfxtp_1
XFILLER_25_123 VGND VGND VPWR VPWR sky130_fd_sc_hd__decap_4
XFILLER_0_222 VGND VGND VPWR VPWR sky130_fd_sc_hd__fill_1
Xmux_left_track_7.mux_l1_in_1_ left_bottom_grid_pin_35_ chany_bottom_in[6] mux_left_track_7.mux_l1_in_2_/S
+ mux_left_track_7.mux_l1_in_1_/X VGND VGND VPWR VPWR sky130_fd_sc_hd__mux2_1
XPHY_184 VGND VPWR sky130_fd_sc_hd__tapvpwrvgnd_1
XPHY_173 VGND VPWR sky130_fd_sc_hd__tapvpwrvgnd_1
XPHY_162 VGND VPWR sky130_fd_sc_hd__tapvpwrvgnd_1
XPHY_151 VGND VPWR sky130_fd_sc_hd__tapvpwrvgnd_1
XPHY_140 VGND VPWR sky130_fd_sc_hd__tapvpwrvgnd_1
XFILLER_16_145 VGND VGND VPWR VPWR sky130_fd_sc_hd__decap_8
Xmux_top_track_0.mux_l2_in_1_ chany_bottom_in[12] mux_top_track_0.mux_l1_in_2_/X mux_top_track_0.mux_l2_in_3_/S
+ mux_top_track_0.mux_l2_in_1_/X VGND VGND VPWR VPWR sky130_fd_sc_hd__mux2_1
XFILLER_11_3 VGND VGND VPWR VPWR sky130_fd_sc_hd__fill_1
XFILLER_22_104 VGND VGND VPWR VPWR sky130_fd_sc_hd__decap_6
XFILLER_13_104 VGND VGND VPWR VPWR sky130_fd_sc_hd__decap_12
Xmem_bottom_track_3.sky130_fd_sc_hd__dfxtp_1_0_ mux_bottom_track_1.mux_l4_in_0_/S
+ mux_bottom_track_3.mux_l1_in_0_/S clkbuf_3_1_0_prog_clk/X VGND VGND VPWR VPWR sky130_fd_sc_hd__dfxtp_1
Xmux_top_track_0.mux_l1_in_2_ chany_bottom_in[2] top_right_grid_pin_1_ mux_top_track_0.mux_l1_in_1_/S
+ mux_top_track_0.mux_l1_in_2_/X VGND VGND VPWR VPWR sky130_fd_sc_hd__mux2_1
Xmux_top_track_16.sky130_fd_sc_hd__buf_4_0_ mux_top_track_16.mux_l3_in_0_/X _117_/A
+ VGND VGND VPWR VPWR sky130_fd_sc_hd__buf_4
XFILLER_23_210 VGND VGND VPWR VPWR sky130_fd_sc_hd__decap_12
XFILLER_23_79 VGND VGND VPWR VPWR sky130_fd_sc_hd__fill_2
XFILLER_23_57 VGND VGND VPWR VPWR sky130_fd_sc_hd__fill_1
XFILLER_2_158 VGND VGND VPWR VPWR sky130_fd_sc_hd__decap_8
Xmem_bottom_track_9.sky130_fd_sc_hd__dfxtp_1_1_ mux_bottom_track_9.mux_l1_in_0_/S
+ mux_bottom_track_9.mux_l2_in_3_/S clkbuf_3_5_0_prog_clk/X VGND VGND VPWR VPWR sky130_fd_sc_hd__dfxtp_1
XFILLER_9_59 VGND VGND VPWR VPWR sky130_fd_sc_hd__fill_2
Xmux_left_track_15.mux_l1_in_0_ chany_bottom_in[12] chany_top_in[12] mux_left_track_15.mux_l1_in_0_/S
+ mux_left_track_15.mux_l1_in_0_/X VGND VGND VPWR VPWR sky130_fd_sc_hd__mux2_1
X_110_ chany_bottom_in[14] chany_top_out[15] VGND VGND VPWR VPWR sky130_fd_sc_hd__buf_2
X_041_ _041_/HI _041_/LO VGND VGND VPWR VPWR sky130_fd_sc_hd__conb_1
XANTENNA_9 _045_/HI VGND VGND VPWR VPWR sky130_fd_sc_hd__diode_2
Xmem_top_track_16.sky130_fd_sc_hd__dfxtp_1_0_ mux_top_track_8.mux_l4_in_0_/S mux_top_track_16.mux_l1_in_0_/S
+ clkbuf_3_7_0_prog_clk/X VGND VGND VPWR VPWR sky130_fd_sc_hd__dfxtp_1
Xmux_bottom_track_9.mux_l2_in_3_ _059_/HI chanx_left_in[18] mux_bottom_track_9.mux_l2_in_3_/S
+ mux_bottom_track_9.mux_l2_in_3_/X VGND VGND VPWR VPWR sky130_fd_sc_hd__mux2_1
Xmux_top_track_0.sky130_fd_sc_hd__buf_4_0_ mux_top_track_0.mux_l4_in_0_/X _125_/A
+ VGND VGND VPWR VPWR sky130_fd_sc_hd__buf_4
Xmux_left_track_7.mux_l1_in_0_ chany_bottom_in[3] chany_top_in[6] mux_left_track_7.mux_l1_in_2_/S
+ mux_left_track_7.mux_l1_in_0_/X VGND VGND VPWR VPWR sky130_fd_sc_hd__mux2_1
XPHY_185 VGND VPWR sky130_fd_sc_hd__tapvpwrvgnd_1
XPHY_174 VGND VPWR sky130_fd_sc_hd__tapvpwrvgnd_1
XPHY_163 VGND VPWR sky130_fd_sc_hd__tapvpwrvgnd_1
XPHY_152 VGND VPWR sky130_fd_sc_hd__tapvpwrvgnd_1
XPHY_141 VGND VPWR sky130_fd_sc_hd__tapvpwrvgnd_1
XPHY_130 VGND VPWR sky130_fd_sc_hd__tapvpwrvgnd_1
XFILLER_16_168 VGND VGND VPWR VPWR sky130_fd_sc_hd__fill_2
Xmux_top_track_0.mux_l2_in_0_ mux_top_track_0.mux_l1_in_1_/X mux_top_track_0.mux_l1_in_0_/X
+ mux_top_track_0.mux_l2_in_3_/S mux_top_track_0.mux_l2_in_0_/X VGND VGND VPWR VPWR
+ sky130_fd_sc_hd__mux2_1
XFILLER_7_92 VGND VGND VPWR VPWR sky130_fd_sc_hd__decap_6
XFILLER_13_116 VGND VGND VPWR VPWR sky130_fd_sc_hd__decap_6
Xmux_top_track_0.mux_l1_in_1_ top_left_grid_pin_48_ top_left_grid_pin_46_ mux_top_track_0.mux_l1_in_1_/S
+ mux_top_track_0.mux_l1_in_1_/X VGND VGND VPWR VPWR sky130_fd_sc_hd__mux2_1
XFILLER_12_26 VGND VGND VPWR VPWR sky130_fd_sc_hd__decap_4
Xmux_bottom_track_9.mux_l4_in_0_ mux_bottom_track_9.mux_l3_in_1_/X mux_bottom_track_9.mux_l3_in_0_/X
+ mux_bottom_track_9.mux_l4_in_0_/S mux_bottom_track_9.mux_l4_in_0_/X VGND VGND VPWR
+ VPWR sky130_fd_sc_hd__mux2_1
Xmem_left_track_21.sky130_fd_sc_hd__dfxtp_1_1_ mux_left_track_21.mux_l1_in_1_/S mux_left_track_21.mux_l2_in_0_/S
+ clkbuf_3_3_0_prog_clk/X VGND VGND VPWR VPWR sky130_fd_sc_hd__dfxtp_1
XFILLER_23_222 VGND VGND VPWR VPWR sky130_fd_sc_hd__fill_1
XFILLER_4_93 VGND VGND VPWR VPWR sky130_fd_sc_hd__decap_3
Xmem_bottom_track_9.sky130_fd_sc_hd__dfxtp_1_0_ mux_bottom_track_5.mux_l4_in_0_/S
+ mux_bottom_track_9.mux_l1_in_0_/S clkbuf_3_5_0_prog_clk/X VGND VGND VPWR VPWR sky130_fd_sc_hd__dfxtp_1
XFILLER_20_203 VGND VGND VPWR VPWR sky130_fd_sc_hd__decap_8
Xmux_bottom_track_9.mux_l3_in_1_ mux_bottom_track_9.mux_l2_in_3_/X mux_bottom_track_9.mux_l2_in_2_/X
+ mux_bottom_track_9.mux_l3_in_1_/S mux_bottom_track_9.mux_l3_in_1_/X VGND VGND VPWR
+ VPWR sky130_fd_sc_hd__mux2_1
XFILLER_1_181 VGND VGND VPWR VPWR sky130_fd_sc_hd__fill_2
X_040_ _040_/HI _040_/LO VGND VGND VPWR VPWR sky130_fd_sc_hd__conb_1
Xmem_bottom_track_17.sky130_fd_sc_hd__dfxtp_1_2_ mux_bottom_track_17.mux_l2_in_0_/S
+ mux_bottom_track_17.mux_l3_in_0_/S clkbuf_3_5_0_prog_clk/X VGND VGND VPWR VPWR sky130_fd_sc_hd__dfxtp_1
XFILLER_28_199 VGND VGND VPWR VPWR sky130_fd_sc_hd__decap_12
XFILLER_20_9 VGND VGND VPWR VPWR sky130_fd_sc_hd__fill_1
Xmux_bottom_track_9.mux_l2_in_2_ chanx_left_in[11] chanx_left_in[4] mux_bottom_track_9.mux_l2_in_3_/S
+ mux_bottom_track_9.mux_l2_in_2_/X VGND VGND VPWR VPWR sky130_fd_sc_hd__mux2_1
XFILLER_3_210 VGND VGND VPWR VPWR sky130_fd_sc_hd__decap_12
XFILLER_6_28 VGND VGND VPWR VPWR sky130_fd_sc_hd__decap_3
XFILLER_31_25 VGND VGND VPWR VPWR sky130_fd_sc_hd__decap_8
XFILLER_25_114 VGND VGND VPWR VPWR sky130_fd_sc_hd__decap_8
XFILLER_15_26 VGND VGND VPWR VPWR sky130_fd_sc_hd__decap_8
XPHY_186 VGND VPWR sky130_fd_sc_hd__tapvpwrvgnd_1
XPHY_175 VGND VPWR sky130_fd_sc_hd__tapvpwrvgnd_1
XPHY_164 VGND VPWR sky130_fd_sc_hd__tapvpwrvgnd_1
XPHY_153 VGND VPWR sky130_fd_sc_hd__tapvpwrvgnd_1
XPHY_142 VGND VPWR sky130_fd_sc_hd__tapvpwrvgnd_1
XPHY_131 VGND VPWR sky130_fd_sc_hd__tapvpwrvgnd_1
XPHY_120 VGND VPWR sky130_fd_sc_hd__tapvpwrvgnd_1
Xmux_left_track_39.mux_l2_in_0_ _042_/HI mux_left_track_39.mux_l1_in_0_/X ccff_tail
+ mux_left_track_39.mux_l2_in_0_/X VGND VGND VPWR VPWR sky130_fd_sc_hd__mux2_1
XPHY_0 VGND VGND VPWR VPWR sky130_fd_sc_hd__decap_3
Xmux_bottom_track_33.sky130_fd_sc_hd__buf_4_0_ mux_bottom_track_33.mux_l3_in_0_/X
+ _089_/A VGND VGND VPWR VPWR sky130_fd_sc_hd__buf_4
Xmux_bottom_track_25.mux_l3_in_0_ mux_bottom_track_25.mux_l2_in_1_/X mux_bottom_track_25.mux_l2_in_0_/X
+ mux_bottom_track_25.mux_l3_in_0_/S mux_bottom_track_25.mux_l3_in_0_/X VGND VGND
+ VPWR VPWR sky130_fd_sc_hd__mux2_1
XFILLER_8_154 VGND VGND VPWR VPWR sky130_fd_sc_hd__decap_8
XFILLER_10_109 VGND VGND VPWR VPWR sky130_fd_sc_hd__decap_8
Xmem_left_track_21.sky130_fd_sc_hd__dfxtp_1_0_ mux_left_track_19.mux_l2_in_0_/S mux_left_track_21.mux_l1_in_1_/S
+ clkbuf_3_2_0_prog_clk/X VGND VGND VPWR VPWR sky130_fd_sc_hd__dfxtp_1
Xmux_top_track_0.mux_l1_in_0_ top_left_grid_pin_44_ top_left_grid_pin_42_ mux_top_track_0.mux_l1_in_1_/S
+ mux_top_track_0.mux_l1_in_0_/X VGND VGND VPWR VPWR sky130_fd_sc_hd__mux2_1
Xclkbuf_2_0_0_prog_clk clkbuf_2_1_0_prog_clk/A clkbuf_2_0_0_prog_clk/X VGND VGND VPWR
+ VPWR sky130_fd_sc_hd__clkbuf_1
XFILLER_4_72 VGND VGND VPWR VPWR sky130_fd_sc_hd__fill_1
XFILLER_2_138 VGND VGND VPWR VPWR sky130_fd_sc_hd__decap_3
Xmux_bottom_track_25.mux_l2_in_1_ _055_/HI mux_bottom_track_25.mux_l1_in_2_/X mux_bottom_track_25.mux_l2_in_1_/S
+ mux_bottom_track_25.mux_l2_in_1_/X VGND VGND VPWR VPWR sky130_fd_sc_hd__mux2_1
XFILLER_20_215 VGND VGND VPWR VPWR sky130_fd_sc_hd__decap_8
Xmux_bottom_track_9.mux_l3_in_0_ mux_bottom_track_9.mux_l2_in_1_/X ANTENNA_12/DIODE
+ mux_bottom_track_9.mux_l3_in_1_/S mux_bottom_track_9.mux_l3_in_0_/X VGND VGND VPWR
+ VPWR sky130_fd_sc_hd__mux2_1
Xmem_bottom_track_17.sky130_fd_sc_hd__dfxtp_1_1_ mux_bottom_track_17.mux_l1_in_2_/S
+ mux_bottom_track_17.mux_l2_in_0_/S clkbuf_3_4_0_prog_clk/X VGND VGND VPWR VPWR sky130_fd_sc_hd__dfxtp_1
XFILLER_27_3 VGND VGND VPWR VPWR sky130_fd_sc_hd__decap_8
X_099_ chany_top_in[5] chany_bottom_out[6] VGND VGND VPWR VPWR sky130_fd_sc_hd__buf_2
XFILLER_28_145 VGND VGND VPWR VPWR sky130_fd_sc_hd__decap_8
XFILLER_28_123 VGND VGND VPWR VPWR sky130_fd_sc_hd__decap_12
XFILLER_28_101 VGND VGND VPWR VPWR sky130_fd_sc_hd__fill_2
XFILLER_20_49 VGND VGND VPWR VPWR sky130_fd_sc_hd__fill_2
XFILLER_20_16 VGND VGND VPWR VPWR sky130_fd_sc_hd__decap_12
XFILLER_1_62 VGND VGND VPWR VPWR sky130_fd_sc_hd__decap_3
XFILLER_3_222 VGND VGND VPWR VPWR sky130_fd_sc_hd__fill_1
Xmux_bottom_track_9.mux_l2_in_1_ bottom_left_grid_pin_49_ bottom_left_grid_pin_45_
+ mux_bottom_track_9.mux_l2_in_3_/S mux_bottom_track_9.mux_l2_in_1_/X VGND VGND VPWR
+ VPWR sky130_fd_sc_hd__mux2_1
Xmux_bottom_track_25.mux_l1_in_2_ chanx_left_in[13] chanx_left_in[6] mux_bottom_track_25.mux_l1_in_2_/S
+ mux_bottom_track_25.mux_l1_in_2_/X VGND VGND VPWR VPWR sky130_fd_sc_hd__mux2_1
XPHY_187 VGND VPWR sky130_fd_sc_hd__tapvpwrvgnd_1
XFILLER_31_129 VGND VGND VPWR VPWR sky130_fd_sc_hd__decap_8
XPHY_176 VGND VPWR sky130_fd_sc_hd__tapvpwrvgnd_1
XPHY_165 VGND VPWR sky130_fd_sc_hd__tapvpwrvgnd_1
XPHY_154 VGND VPWR sky130_fd_sc_hd__tapvpwrvgnd_1
XPHY_143 VGND VPWR sky130_fd_sc_hd__tapvpwrvgnd_1
XPHY_132 VGND VPWR sky130_fd_sc_hd__tapvpwrvgnd_1
XPHY_121 VGND VPWR sky130_fd_sc_hd__tapvpwrvgnd_1
XPHY_110 VGND VPWR sky130_fd_sc_hd__tapvpwrvgnd_1
XPHY_1 VGND VGND VPWR VPWR sky130_fd_sc_hd__decap_3
Xclkbuf_3_2_0_prog_clk clkbuf_3_3_0_prog_clk/A clkbuf_3_2_0_prog_clk/X VGND VGND VPWR
+ VPWR sky130_fd_sc_hd__clkbuf_1
Xmux_left_track_39.mux_l1_in_0_ left_bottom_grid_pin_41_ chany_top_in[1] mux_left_track_39.mux_l1_in_0_/S
+ mux_left_track_39.mux_l1_in_0_/X VGND VGND VPWR VPWR sky130_fd_sc_hd__mux2_1
XFILLER_17_210 VGND VGND VPWR VPWR sky130_fd_sc_hd__decap_12
XFILLER_27_91 VGND VGND VPWR VPWR sky130_fd_sc_hd__decap_8
XFILLER_27_80 VGND VGND VPWR VPWR sky130_fd_sc_hd__decap_8
XFILLER_14_213 VGND VGND VPWR VPWR sky130_fd_sc_hd__fill_1
XFILLER_9_29 VGND VGND VPWR VPWR sky130_fd_sc_hd__fill_1
XFILLER_1_161 VGND VGND VPWR VPWR sky130_fd_sc_hd__decap_8
Xmux_bottom_track_25.mux_l2_in_0_ mux_bottom_track_25.mux_l1_in_1_/X mux_bottom_track_25.mux_l1_in_0_/X
+ mux_bottom_track_25.mux_l2_in_1_/S mux_bottom_track_25.mux_l2_in_0_/X VGND VGND
+ VPWR VPWR sky130_fd_sc_hd__mux2_1
XFILLER_18_49 VGND VGND VPWR VPWR sky130_fd_sc_hd__decap_8
Xmem_bottom_track_17.sky130_fd_sc_hd__dfxtp_1_0_ mux_bottom_track_9.mux_l4_in_0_/S
+ mux_bottom_track_17.mux_l1_in_2_/S clkbuf_3_5_0_prog_clk/X VGND VGND VPWR VPWR sky130_fd_sc_hd__dfxtp_1
X_098_ chany_top_in[6] chany_bottom_out[7] VGND VGND VPWR VPWR sky130_fd_sc_hd__buf_2
XFILLER_20_28 VGND VGND VPWR VPWR sky130_fd_sc_hd__decap_3
XFILLER_28_135 VGND VGND VPWR VPWR sky130_fd_sc_hd__decap_6
Xmem_top_track_4.sky130_fd_sc_hd__dfxtp_1_3_ mux_top_track_4.mux_l3_in_0_/S mux_top_track_4.mux_l4_in_0_/S
+ clkbuf_3_7_0_prog_clk/X VGND VGND VPWR VPWR sky130_fd_sc_hd__dfxtp_1
Xmux_bottom_track_25.mux_l1_in_1_ bottom_left_grid_pin_47_ bottom_left_grid_pin_43_
+ mux_bottom_track_25.mux_l1_in_2_/S mux_bottom_track_25.mux_l1_in_1_/X VGND VGND
+ VPWR VPWR sky130_fd_sc_hd__mux2_1
Xmux_bottom_track_9.mux_l2_in_0_ bottom_right_grid_pin_1_ mux_bottom_track_9.mux_l1_in_0_/X
+ mux_bottom_track_9.mux_l2_in_3_/S ANTENNA_12/DIODE VGND VGND VPWR VPWR sky130_fd_sc_hd__mux2_1
XFILLER_31_49 VGND VGND VPWR VPWR sky130_fd_sc_hd__decap_12
XPHY_100 VGND VPWR sky130_fd_sc_hd__tapvpwrvgnd_1
XPHY_188 VGND VPWR sky130_fd_sc_hd__tapvpwrvgnd_1
XPHY_177 VGND VPWR sky130_fd_sc_hd__tapvpwrvgnd_1
XPHY_166 VGND VPWR sky130_fd_sc_hd__tapvpwrvgnd_1
XFILLER_24_160 VGND VGND VPWR VPWR sky130_fd_sc_hd__decap_8
XPHY_155 VGND VPWR sky130_fd_sc_hd__tapvpwrvgnd_1
XPHY_144 VGND VPWR sky130_fd_sc_hd__tapvpwrvgnd_1
XPHY_133 VGND VPWR sky130_fd_sc_hd__tapvpwrvgnd_1
XPHY_122 VGND VPWR sky130_fd_sc_hd__tapvpwrvgnd_1
XPHY_111 VGND VPWR sky130_fd_sc_hd__tapvpwrvgnd_1
XPHY_2 VGND VGND VPWR VPWR sky130_fd_sc_hd__decap_3
Xmux_top_track_16.mux_l1_in_3_ _047_/HI chanx_left_in[17] mux_top_track_16.mux_l1_in_0_/S
+ mux_top_track_16.mux_l1_in_3_/X VGND VGND VPWR VPWR sky130_fd_sc_hd__mux2_1
XFILLER_30_163 VGND VGND VPWR VPWR sky130_fd_sc_hd__decap_8
XFILLER_26_16 VGND VGND VPWR VPWR sky130_fd_sc_hd__decap_12
XFILLER_21_163 VGND VGND VPWR VPWR sky130_fd_sc_hd__decap_8
Xmux_left_track_5.sky130_fd_sc_hd__buf_4_0_ mux_left_track_5.mux_l3_in_0_/X _083_/A
+ VGND VGND VPWR VPWR sky130_fd_sc_hd__buf_4
XFILLER_7_62 VGND VGND VPWR VPWR sky130_fd_sc_hd__fill_1