* NGSPICE file created from sb_2__0_.ext - technology: sky130A

* Black-box entry subcircuit for sky130_fd_sc_hd__decap_4 abstract view
.subckt sky130_fd_sc_hd__decap_4 VGND VNB VPB VPWR
.ends

* Black-box entry subcircuit for sky130_fd_sc_hd__decap_12 abstract view
.subckt sky130_fd_sc_hd__decap_12 VGND VNB VPB VPWR
.ends

* Black-box entry subcircuit for sky130_fd_sc_hd__diode_2 abstract view
.subckt sky130_fd_sc_hd__diode_2 DIODE VGND VNB VPB VPWR
.ends

* Black-box entry subcircuit for sky130_fd_sc_hd__decap_8 abstract view
.subckt sky130_fd_sc_hd__decap_8 VGND VNB VPB VPWR
.ends

* Black-box entry subcircuit for sky130_fd_sc_hd__fill_2 abstract view
.subckt sky130_fd_sc_hd__fill_2 VGND VNB VPB VPWR
.ends

* Black-box entry subcircuit for sky130_fd_sc_hd__decap_3 abstract view
.subckt sky130_fd_sc_hd__decap_3 VGND VNB VPB VPWR
.ends

* Black-box entry subcircuit for sky130_fd_sc_hd__conb_1 abstract view
.subckt sky130_fd_sc_hd__conb_1 HI LO VGND VNB VPB VPWR
.ends

* Black-box entry subcircuit for sky130_fd_sc_hd__decap_6 abstract view
.subckt sky130_fd_sc_hd__decap_6 VGND VNB VPB VPWR
.ends

* Black-box entry subcircuit for sky130_fd_sc_hd__tapvpwrvgnd_1 abstract view
.subckt sky130_fd_sc_hd__tapvpwrvgnd_1 VGND VPWR
.ends

* Black-box entry subcircuit for sky130_fd_sc_hd__fill_1 abstract view
.subckt sky130_fd_sc_hd__fill_1 VGND VNB VPB VPWR
.ends

* Black-box entry subcircuit for sky130_fd_sc_hd__buf_1 abstract view
.subckt sky130_fd_sc_hd__buf_1 A X VGND VNB VPB VPWR
.ends

* Black-box entry subcircuit for sky130_fd_sc_hd__mux2_1 abstract view
.subckt sky130_fd_sc_hd__mux2_1 A0 A1 S X VGND VNB VPB VPWR
.ends

* Black-box entry subcircuit for sky130_fd_sc_hd__dfxbp_1 abstract view
.subckt sky130_fd_sc_hd__dfxbp_1 D Q Q_N CLK VGND VNB VPB VPWR
.ends

* Black-box entry subcircuit for sky130_fd_sc_hd__buf_2 abstract view
.subckt sky130_fd_sc_hd__buf_2 A X VGND VNB VPB VPWR
.ends

.subckt sb_2__0_ ccff_head ccff_tail chanx_left_in[0] chanx_left_in[10] chanx_left_in[11]
+ chanx_left_in[12] chanx_left_in[13] chanx_left_in[14] chanx_left_in[15] chanx_left_in[16]
+ chanx_left_in[17] chanx_left_in[18] chanx_left_in[19] chanx_left_in[1] chanx_left_in[2]
+ chanx_left_in[3] chanx_left_in[4] chanx_left_in[5] chanx_left_in[6] chanx_left_in[7]
+ chanx_left_in[8] chanx_left_in[9] chanx_left_out[0] chanx_left_out[10] chanx_left_out[11]
+ chanx_left_out[12] chanx_left_out[13] chanx_left_out[14] chanx_left_out[15] chanx_left_out[16]
+ chanx_left_out[17] chanx_left_out[18] chanx_left_out[19] chanx_left_out[1] chanx_left_out[2]
+ chanx_left_out[3] chanx_left_out[4] chanx_left_out[5] chanx_left_out[6] chanx_left_out[7]
+ chanx_left_out[8] chanx_left_out[9] chany_top_in[0] chany_top_in[10] chany_top_in[11]
+ chany_top_in[12] chany_top_in[13] chany_top_in[14] chany_top_in[15] chany_top_in[16]
+ chany_top_in[17] chany_top_in[18] chany_top_in[19] chany_top_in[1] chany_top_in[2]
+ chany_top_in[3] chany_top_in[4] chany_top_in[5] chany_top_in[6] chany_top_in[7]
+ chany_top_in[8] chany_top_in[9] chany_top_out[0] chany_top_out[10] chany_top_out[11]
+ chany_top_out[12] chany_top_out[13] chany_top_out[14] chany_top_out[15] chany_top_out[16]
+ chany_top_out[17] chany_top_out[18] chany_top_out[19] chany_top_out[1] chany_top_out[2]
+ chany_top_out[3] chany_top_out[4] chany_top_out[5] chany_top_out[6] chany_top_out[7]
+ chany_top_out[8] chany_top_out[9] left_bottom_grid_pin_1_ left_top_grid_pin_42_
+ left_top_grid_pin_43_ left_top_grid_pin_44_ left_top_grid_pin_45_ left_top_grid_pin_46_
+ left_top_grid_pin_47_ left_top_grid_pin_48_ left_top_grid_pin_49_ prog_clk top_left_grid_pin_34_
+ top_left_grid_pin_35_ top_left_grid_pin_36_ top_left_grid_pin_37_ top_left_grid_pin_38_
+ top_left_grid_pin_39_ top_left_grid_pin_40_ top_left_grid_pin_41_ top_right_grid_pin_1_
+ VPWR VGND
XFILLER_26_52 VGND VGND VPWR VPWR sky130_fd_sc_hd__decap_4
XFILLER_9_159 VGND VGND VPWR VPWR sky130_fd_sc_hd__decap_12
XANTENNA_mem_top_track_38.sky130_fd_sc_hd__dfxbp_1_1__D mux_top_track_38.mux_l1_in_0_/S
+ VGND VGND VPWR VPWR sky130_fd_sc_hd__diode_2
XFILLER_27_203 VGND VGND VPWR VPWR sky130_fd_sc_hd__decap_12
XFILLER_27_269 VGND VGND VPWR VPWR sky130_fd_sc_hd__decap_8
XFILLER_6_129 VGND VGND VPWR VPWR sky130_fd_sc_hd__decap_12
XFILLER_12_32 VGND VGND VPWR VPWR sky130_fd_sc_hd__fill_2
XANTENNA_mem_left_track_7.sky130_fd_sc_hd__dfxbp_1_1__D mux_left_track_7.mux_l1_in_0_/S
+ VGND VGND VPWR VPWR sky130_fd_sc_hd__diode_2
XFILLER_12_87 VGND VGND VPWR VPWR sky130_fd_sc_hd__decap_3
XFILLER_37_62 VGND VGND VPWR VPWR sky130_fd_sc_hd__decap_3
XFILLER_37_40 VGND VGND VPWR VPWR sky130_fd_sc_hd__fill_2
XANTENNA_mux_top_track_36.mux_l2_in_0__A0 _050_/HI VGND VGND VPWR VPWR sky130_fd_sc_hd__diode_2
XFILLER_37_95 VGND VGND VPWR VPWR sky130_fd_sc_hd__decap_4
XFILLER_5_184 VGND VGND VPWR VPWR sky130_fd_sc_hd__decap_12
XANTENNA_mem_top_track_24.sky130_fd_sc_hd__dfxbp_1_0__CLK prog_clk VGND VGND VPWR
+ VPWR sky130_fd_sc_hd__diode_2
XFILLER_24_239 VGND VGND VPWR VPWR sky130_fd_sc_hd__decap_12
XANTENNA_mux_top_track_0.mux_l1_in_0__A0 top_left_grid_pin_36_ VGND VGND VPWR VPWR
+ sky130_fd_sc_hd__diode_2
X_062_ _062_/HI _062_/LO VGND VGND VPWR VPWR sky130_fd_sc_hd__conb_1
XFILLER_23_42 VGND VGND VPWR VPWR sky130_fd_sc_hd__fill_2
XFILLER_2_154 VGND VGND VPWR VPWR sky130_fd_sc_hd__decap_12
XFILLER_9_55 VGND VGND VPWR VPWR sky130_fd_sc_hd__decap_6
XANTENNA_mux_top_track_28.mux_l2_in_0__A1 mux_top_track_28.mux_l1_in_0_/X VGND VGND
+ VPWR VPWR sky130_fd_sc_hd__diode_2
XANTENNA_mem_top_track_38.sky130_fd_sc_hd__dfxbp_1_1__CLK prog_clk VGND VGND VPWR
+ VPWR sky130_fd_sc_hd__diode_2
XFILLER_20_242 VGND VGND VPWR VPWR sky130_fd_sc_hd__decap_12
XFILLER_18_20 VGND VGND VPWR VPWR sky130_fd_sc_hd__fill_2
XFILLER_34_96 VGND VGND VPWR VPWR sky130_fd_sc_hd__decap_4
XFILLER_11_220 VGND VGND VPWR VPWR sky130_fd_sc_hd__decap_12
XFILLER_7_257 VGND VGND VPWR VPWR sky130_fd_sc_hd__decap_12
X_045_ _045_/HI _045_/LO VGND VGND VPWR VPWR sky130_fd_sc_hd__conb_1
XFILLER_38_139 VGND VGND VPWR VPWR sky130_fd_sc_hd__decap_12
XFILLER_38_106 VGND VGND VPWR VPWR sky130_fd_sc_hd__decap_8
XANTENNA_mem_top_track_16.sky130_fd_sc_hd__dfxbp_1_1__CLK prog_clk VGND VGND VPWR
+ VPWR sky130_fd_sc_hd__diode_2
XANTENNA_mux_left_track_17.mux_l2_in_0__S mux_left_track_17.mux_l2_in_0_/S VGND VGND
+ VPWR VPWR sky130_fd_sc_hd__diode_2
XANTENNA_mem_left_track_27.sky130_fd_sc_hd__dfxbp_1_0__CLK prog_clk VGND VGND VPWR
+ VPWR sky130_fd_sc_hd__diode_2
XFILLER_4_227 VGND VGND VPWR VPWR sky130_fd_sc_hd__decap_12
XFILLER_20_65 VGND VGND VPWR VPWR sky130_fd_sc_hd__fill_2
XFILLER_29_85 VGND VGND VPWR VPWR sky130_fd_sc_hd__fill_2
XFILLER_29_52 VGND VGND VPWR VPWR sky130_fd_sc_hd__fill_2
XFILLER_6_56 VGND VGND VPWR VPWR sky130_fd_sc_hd__decap_12
XFILLER_26_109 VGND VGND VPWR VPWR sky130_fd_sc_hd__fill_2
XFILLER_1_208 VGND VGND VPWR VPWR sky130_fd_sc_hd__decap_12
XFILLER_25_120 VGND VGND VPWR VPWR sky130_fd_sc_hd__fill_2
XFILLER_25_175 VGND VGND VPWR VPWR sky130_fd_sc_hd__decap_8
XFILLER_40_178 VGND VGND VPWR VPWR sky130_fd_sc_hd__decap_12
XFILLER_31_53 VGND VGND VPWR VPWR sky130_fd_sc_hd__fill_2
XFILLER_31_31 VGND VGND VPWR VPWR sky130_fd_sc_hd__decap_3
XFILLER_0_230 VGND VGND VPWR VPWR sky130_fd_sc_hd__decap_12
XFILLER_16_142 VGND VGND VPWR VPWR sky130_fd_sc_hd__fill_2
XPHY_170 VGND VPWR sky130_fd_sc_hd__tapvpwrvgnd_1
XANTENNA_mux_top_track_0.mux_l2_in_1__S mux_top_track_0.mux_l2_in_0_/S VGND VGND VPWR
+ VPWR sky130_fd_sc_hd__diode_2
XANTENNA_mux_left_track_7.mux_l1_in_0__S mux_left_track_7.mux_l1_in_0_/S VGND VGND
+ VPWR VPWR sky130_fd_sc_hd__diode_2
XPHY_181 VGND VPWR sky130_fd_sc_hd__tapvpwrvgnd_1
XPHY_192 VGND VPWR sky130_fd_sc_hd__tapvpwrvgnd_1
XANTENNA_mem_left_track_19.sky130_fd_sc_hd__dfxbp_1_1__CLK prog_clk VGND VGND VPWR
+ VPWR sky130_fd_sc_hd__diode_2
XFILLER_22_167 VGND VGND VPWR VPWR sky130_fd_sc_hd__fill_2
XFILLER_13_101 VGND VGND VPWR VPWR sky130_fd_sc_hd__fill_2
XFILLER_13_167 VGND VGND VPWR VPWR sky130_fd_sc_hd__decap_4
XFILLER_26_97 VGND VGND VPWR VPWR sky130_fd_sc_hd__fill_2
XFILLER_36_215 VGND VGND VPWR VPWR sky130_fd_sc_hd__decap_12
XFILLER_27_215 VGND VGND VPWR VPWR sky130_fd_sc_hd__decap_12
XFILLER_42_218 VGND VGND VPWR VPWR sky130_fd_sc_hd__decap_12
XFILLER_12_11 VGND VGND VPWR VPWR sky130_fd_sc_hd__fill_2
XFILLER_12_22 VGND VGND VPWR VPWR sky130_fd_sc_hd__fill_2
XANTENNA_mem_top_track_0.sky130_fd_sc_hd__dfxbp_1_0__CLK prog_clk VGND VGND VPWR VPWR
+ sky130_fd_sc_hd__diode_2
XFILLER_18_215 VGND VGND VPWR VPWR sky130_fd_sc_hd__decap_8
XANTENNA_mux_top_track_36.mux_l2_in_0__A1 mux_top_track_36.mux_l1_in_0_/X VGND VGND
+ VPWR VPWR sky130_fd_sc_hd__diode_2
XANTENNA_mux_left_track_1.sky130_fd_sc_hd__buf_4_0__A mux_left_track_1.mux_l3_in_0_/X
+ VGND VGND VPWR VPWR sky130_fd_sc_hd__diode_2
XFILLER_5_196 VGND VGND VPWR VPWR sky130_fd_sc_hd__decap_12
XFILLER_32_251 VGND VGND VPWR VPWR sky130_fd_sc_hd__decap_12
XANTENNA_mem_top_track_30.sky130_fd_sc_hd__dfxbp_1_1__D mux_top_track_30.mux_l1_in_0_/S
+ VGND VGND VPWR VPWR sky130_fd_sc_hd__diode_2
XFILLER_15_207 VGND VGND VPWR VPWR sky130_fd_sc_hd__decap_12
XANTENNA_mux_top_track_0.mux_l1_in_0__A1 top_left_grid_pin_34_ VGND VGND VPWR VPWR
+ sky130_fd_sc_hd__diode_2
XFILLER_23_54 VGND VGND VPWR VPWR sky130_fd_sc_hd__fill_1
X_061_ _061_/HI _061_/LO VGND VGND VPWR VPWR sky130_fd_sc_hd__conb_1
XFILLER_2_166 VGND VGND VPWR VPWR sky130_fd_sc_hd__decap_12
XFILLER_14_251 VGND VGND VPWR VPWR sky130_fd_sc_hd__decap_12
XANTENNA_mux_top_track_30.mux_l2_in_0__S mux_top_track_30.mux_l2_in_0_/S VGND VGND
+ VPWR VPWR sky130_fd_sc_hd__diode_2
Xmux_left_track_9.sky130_fd_sc_hd__buf_4_0_ mux_left_track_9.mux_l2_in_0_/X _083_/A
+ VGND VGND VPWR VPWR sky130_fd_sc_hd__buf_1
XFILLER_20_254 VGND VGND VPWR VPWR sky130_fd_sc_hd__decap_12
XFILLER_20_276 VGND VGND VPWR VPWR sky130_fd_sc_hd__fill_1
XFILLER_18_87 VGND VGND VPWR VPWR sky130_fd_sc_hd__fill_1
XFILLER_34_86 VGND VGND VPWR VPWR sky130_fd_sc_hd__decap_6
XFILLER_11_232 VGND VGND VPWR VPWR sky130_fd_sc_hd__decap_12
XFILLER_7_269 VGND VGND VPWR VPWR sky130_fd_sc_hd__decap_8
X_044_ _044_/HI _044_/LO VGND VGND VPWR VPWR sky130_fd_sc_hd__conb_1
XANTENNA_mux_top_track_24.mux_l1_in_0__S mux_top_track_24.mux_l1_in_0_/S VGND VGND
+ VPWR VPWR sky130_fd_sc_hd__diode_2
XANTENNA_mux_left_track_5.mux_l3_in_0__S mux_left_track_5.mux_l3_in_0_/S VGND VGND
+ VPWR VPWR sky130_fd_sc_hd__diode_2
XFILLER_29_118 VGND VGND VPWR VPWR sky130_fd_sc_hd__fill_2
XFILLER_37_195 VGND VGND VPWR VPWR sky130_fd_sc_hd__decap_12
XFILLER_37_184 VGND VGND VPWR VPWR sky130_fd_sc_hd__fill_2
XFILLER_37_162 VGND VGND VPWR VPWR sky130_fd_sc_hd__fill_1
XFILLER_4_239 VGND VGND VPWR VPWR sky130_fd_sc_hd__decap_12
XFILLER_20_77 VGND VGND VPWR VPWR sky130_fd_sc_hd__decap_4
XFILLER_29_31 VGND VGND VPWR VPWR sky130_fd_sc_hd__fill_2
Xmux_top_track_10.mux_l2_in_0_ _036_/HI mux_top_track_10.mux_l1_in_0_/X mux_top_track_10.mux_l2_in_0_/S
+ mux_top_track_10.mux_l2_in_0_/X VGND VGND VPWR VPWR sky130_fd_sc_hd__mux2_1
XANTENNA_mem_top_track_6.sky130_fd_sc_hd__dfxbp_1_2__CLK prog_clk VGND VGND VPWR VPWR
+ sky130_fd_sc_hd__diode_2
XFILLER_28_151 VGND VGND VPWR VPWR sky130_fd_sc_hd__fill_2
XFILLER_6_68 VGND VGND VPWR VPWR sky130_fd_sc_hd__decap_12
XFILLER_19_195 VGND VGND VPWR VPWR sky130_fd_sc_hd__decap_12
XFILLER_34_154 VGND VGND VPWR VPWR sky130_fd_sc_hd__decap_12
XFILLER_40_102 VGND VGND VPWR VPWR sky130_fd_sc_hd__decap_8
XFILLER_25_143 VGND VGND VPWR VPWR sky130_fd_sc_hd__fill_2
XFILLER_25_187 VGND VGND VPWR VPWR sky130_fd_sc_hd__fill_2
XFILLER_25_198 VGND VGND VPWR VPWR sky130_fd_sc_hd__fill_2
XANTENNA_mux_left_track_23.sky130_fd_sc_hd__buf_4_0__A mux_left_track_23.mux_l2_in_0_/X
+ VGND VGND VPWR VPWR sky130_fd_sc_hd__diode_2
XFILLER_0_242 VGND VGND VPWR VPWR sky130_fd_sc_hd__decap_6
Xmem_top_track_12.sky130_fd_sc_hd__dfxbp_1_1_ mux_top_track_12.mux_l1_in_0_/S mux_top_track_12.mux_l2_in_0_/S
+ mem_top_track_12.sky130_fd_sc_hd__dfxbp_1_1_/Q_N prog_clk VGND VGND VPWR VPWR sky130_fd_sc_hd__dfxbp_1
XFILLER_31_157 VGND VGND VPWR VPWR sky130_fd_sc_hd__decap_4
XFILLER_31_113 VGND VGND VPWR VPWR sky130_fd_sc_hd__decap_3
XPHY_160 VGND VPWR sky130_fd_sc_hd__tapvpwrvgnd_1
XPHY_171 VGND VPWR sky130_fd_sc_hd__tapvpwrvgnd_1
XPHY_182 VGND VPWR sky130_fd_sc_hd__tapvpwrvgnd_1
XPHY_193 VGND VPWR sky130_fd_sc_hd__tapvpwrvgnd_1
XANTENNA_mux_top_track_20.sky130_fd_sc_hd__buf_4_0__A mux_top_track_20.mux_l2_in_0_/X
+ VGND VGND VPWR VPWR sky130_fd_sc_hd__diode_2
Xmux_left_track_25.sky130_fd_sc_hd__buf_4_0_ mux_left_track_25.mux_l2_in_0_/X _075_/A
+ VGND VGND VPWR VPWR sky130_fd_sc_hd__buf_1
XFILLER_22_102 VGND VGND VPWR VPWR sky130_fd_sc_hd__fill_2
XFILLER_22_135 VGND VGND VPWR VPWR sky130_fd_sc_hd__decap_4
XFILLER_26_10 VGND VGND VPWR VPWR sky130_fd_sc_hd__fill_2
XFILLER_26_32 VGND VGND VPWR VPWR sky130_fd_sc_hd__fill_2
XFILLER_9_106 VGND VGND VPWR VPWR sky130_fd_sc_hd__decap_12
XANTENNA_mux_left_track_21.mux_l1_in_0__S mux_left_track_21.mux_l1_in_0_/S VGND VGND
+ VPWR VPWR sky130_fd_sc_hd__diode_2
XFILLER_36_227 VGND VGND VPWR VPWR sky130_fd_sc_hd__decap_12
XANTENNA_mux_top_track_10.mux_l2_in_0__A0 _036_/HI VGND VGND VPWR VPWR sky130_fd_sc_hd__diode_2
XFILLER_27_227 VGND VGND VPWR VPWR sky130_fd_sc_hd__decap_12
XFILLER_10_127 VGND VGND VPWR VPWR sky130_fd_sc_hd__fill_1
XFILLER_37_53 VGND VGND VPWR VPWR sky130_fd_sc_hd__fill_2
XFILLER_37_31 VGND VGND VPWR VPWR sky130_fd_sc_hd__decap_3
XFILLER_33_208 VGND VGND VPWR VPWR sky130_fd_sc_hd__decap_12
XFILLER_18_227 VGND VGND VPWR VPWR sky130_fd_sc_hd__decap_12
Xmux_left_track_19.sky130_fd_sc_hd__buf_4_0_ mux_left_track_19.mux_l2_in_0_/X _078_/A
+ VGND VGND VPWR VPWR sky130_fd_sc_hd__buf_1
Xmux_left_track_7.mux_l3_in_0_ mux_left_track_7.mux_l2_in_1_/X mux_left_track_7.mux_l2_in_0_/X
+ mux_left_track_7.mux_l3_in_0_/S mux_left_track_7.mux_l3_in_0_/X VGND VGND VPWR VPWR
+ sky130_fd_sc_hd__mux2_1
XFILLER_32_263 VGND VGND VPWR VPWR sky130_fd_sc_hd__decap_12
XFILLER_4_90 VGND VGND VPWR VPWR sky130_fd_sc_hd__fill_2
XFILLER_15_219 VGND VGND VPWR VPWR sky130_fd_sc_hd__decap_12
XFILLER_23_11 VGND VGND VPWR VPWR sky130_fd_sc_hd__fill_2
XFILLER_23_230 VGND VGND VPWR VPWR sky130_fd_sc_hd__decap_12
X_060_ _060_/HI _060_/LO VGND VGND VPWR VPWR sky130_fd_sc_hd__conb_1
XFILLER_3_3 VGND VGND VPWR VPWR sky130_fd_sc_hd__decap_12
XFILLER_0_15 VGND VGND VPWR VPWR sky130_fd_sc_hd__decap_12
XFILLER_2_178 VGND VGND VPWR VPWR sky130_fd_sc_hd__decap_12
XANTENNA_mux_top_track_16.mux_l2_in_0__S mux_top_track_16.mux_l2_in_0_/S VGND VGND
+ VPWR VPWR sky130_fd_sc_hd__diode_2
XFILLER_14_263 VGND VGND VPWR VPWR sky130_fd_sc_hd__decap_12
XFILLER_36_3 VGND VGND VPWR VPWR sky130_fd_sc_hd__fill_2
XFILLER_20_211 VGND VGND VPWR VPWR sky130_fd_sc_hd__decap_3
XFILLER_20_266 VGND VGND VPWR VPWR sky130_fd_sc_hd__decap_8
XFILLER_18_66 VGND VGND VPWR VPWR sky130_fd_sc_hd__fill_2
Xmux_left_track_7.mux_l2_in_1_ _067_/HI left_top_grid_pin_49_ mux_left_track_7.mux_l2_in_0_/S
+ mux_left_track_7.mux_l2_in_1_/X VGND VGND VPWR VPWR sky130_fd_sc_hd__mux2_1
X_043_ _043_/HI _043_/LO VGND VGND VPWR VPWR sky130_fd_sc_hd__conb_1
XANTENNA_mem_left_track_9.sky130_fd_sc_hd__dfxbp_1_1__CLK prog_clk VGND VGND VPWR
+ VPWR sky130_fd_sc_hd__diode_2
XANTENNA_mux_left_track_7.sky130_fd_sc_hd__buf_4_0__A mux_left_track_7.mux_l3_in_0_/X
+ VGND VGND VPWR VPWR sky130_fd_sc_hd__diode_2
XANTENNA_mem_top_track_2.sky130_fd_sc_hd__dfxbp_1_2__D mux_top_track_2.mux_l2_in_0_/S
+ VGND VGND VPWR VPWR sky130_fd_sc_hd__diode_2
XFILLER_37_174 VGND VGND VPWR VPWR sky130_fd_sc_hd__decap_8
XFILLER_20_45 VGND VGND VPWR VPWR sky130_fd_sc_hd__decap_4
XFILLER_29_98 VGND VGND VPWR VPWR sky130_fd_sc_hd__decap_4
XFILLER_28_163 VGND VGND VPWR VPWR sky130_fd_sc_hd__decap_8
XFILLER_28_174 VGND VGND VPWR VPWR sky130_fd_sc_hd__decap_8
XFILLER_28_185 VGND VGND VPWR VPWR sky130_fd_sc_hd__decap_12
XFILLER_34_166 VGND VGND VPWR VPWR sky130_fd_sc_hd__decap_12
XFILLER_34_122 VGND VGND VPWR VPWR sky130_fd_sc_hd__fill_1
XFILLER_19_163 VGND VGND VPWR VPWR sky130_fd_sc_hd__fill_1
XFILLER_25_100 VGND VGND VPWR VPWR sky130_fd_sc_hd__fill_2
XFILLER_25_166 VGND VGND VPWR VPWR sky130_fd_sc_hd__decap_3
XANTENNA_mem_left_track_21.sky130_fd_sc_hd__dfxbp_1_1__CLK prog_clk VGND VGND VPWR
+ VPWR sky130_fd_sc_hd__diode_2
XFILLER_31_66 VGND VGND VPWR VPWR sky130_fd_sc_hd__fill_1
Xmem_top_track_12.sky130_fd_sc_hd__dfxbp_1_0_ mux_top_track_10.mux_l2_in_0_/S mux_top_track_12.mux_l1_in_0_/S
+ mem_top_track_12.sky130_fd_sc_hd__dfxbp_1_0_/Q_N prog_clk VGND VGND VPWR VPWR sky130_fd_sc_hd__dfxbp_1
XANTENNA_mux_left_track_13.mux_l2_in_0__S mux_left_track_13.mux_l2_in_0_/S VGND VGND
+ VPWR VPWR sky130_fd_sc_hd__diode_2
XPHY_150 VGND VPWR sky130_fd_sc_hd__tapvpwrvgnd_1
XPHY_161 VGND VPWR sky130_fd_sc_hd__tapvpwrvgnd_1
XFILLER_16_177 VGND VGND VPWR VPWR sky130_fd_sc_hd__decap_4
XPHY_172 VGND VPWR sky130_fd_sc_hd__tapvpwrvgnd_1
XPHY_183 VGND VPWR sky130_fd_sc_hd__tapvpwrvgnd_1
XPHY_194 VGND VPWR sky130_fd_sc_hd__tapvpwrvgnd_1
XFILLER_22_114 VGND VGND VPWR VPWR sky130_fd_sc_hd__fill_2
XFILLER_30_180 VGND VGND VPWR VPWR sky130_fd_sc_hd__decap_12
XANTENNA_mem_top_track_14.sky130_fd_sc_hd__dfxbp_1_0__D mux_top_track_12.mux_l2_in_0_/S
+ VGND VGND VPWR VPWR sky130_fd_sc_hd__diode_2
Xmux_top_track_10.mux_l1_in_0_ chanx_left_in[15] top_left_grid_pin_35_ mux_top_track_10.mux_l1_in_0_/S
+ mux_top_track_10.mux_l1_in_0_/X VGND VGND VPWR VPWR sky130_fd_sc_hd__mux2_1
XANTENNA_mux_top_track_2.mux_l1_in_1__A0 top_left_grid_pin_41_ VGND VGND VPWR VPWR
+ sky130_fd_sc_hd__diode_2
XFILLER_42_54 VGND VGND VPWR VPWR sky130_fd_sc_hd__decap_8
XFILLER_42_43 VGND VGND VPWR VPWR sky130_fd_sc_hd__decap_8
XFILLER_42_32 VGND VGND VPWR VPWR sky130_fd_sc_hd__fill_2
XFILLER_9_118 VGND VGND VPWR VPWR sky130_fd_sc_hd__decap_4
XFILLER_13_114 VGND VGND VPWR VPWR sky130_fd_sc_hd__fill_2
XFILLER_13_136 VGND VGND VPWR VPWR sky130_fd_sc_hd__fill_2
Xmux_top_track_22.mux_l2_in_0_ _043_/HI mux_top_track_22.mux_l1_in_0_/X mux_top_track_22.mux_l2_in_0_/S
+ mux_top_track_22.mux_l2_in_0_/X VGND VGND VPWR VPWR sky130_fd_sc_hd__mux2_1
XFILLER_3_59 VGND VGND VPWR VPWR sky130_fd_sc_hd__fill_2
XFILLER_3_15 VGND VGND VPWR VPWR sky130_fd_sc_hd__decap_12
XFILLER_36_239 VGND VGND VPWR VPWR sky130_fd_sc_hd__decap_12
XANTENNA_mux_top_track_10.mux_l2_in_0__A1 mux_top_track_10.mux_l1_in_0_/X VGND VGND
+ VPWR VPWR sky130_fd_sc_hd__diode_2
XANTENNA_mux_left_track_3.mux_l1_in_0__S mux_left_track_3.mux_l1_in_0_/S VGND VGND
+ VPWR VPWR sky130_fd_sc_hd__diode_2
XANTENNA_mux_top_track_0.sky130_fd_sc_hd__buf_4_0__A mux_top_track_0.mux_l3_in_0_/X
+ VGND VGND VPWR VPWR sky130_fd_sc_hd__diode_2
XFILLER_27_239 VGND VGND VPWR VPWR sky130_fd_sc_hd__decap_4
XFILLER_12_79 VGND VGND VPWR VPWR sky130_fd_sc_hd__fill_2
XFILLER_41_220 VGND VGND VPWR VPWR sky130_fd_sc_hd__decap_12
Xmux_left_track_15.mux_l2_in_0_ _058_/HI mux_left_track_15.mux_l1_in_0_/X mux_left_track_15.mux_l2_in_0_/S
+ mux_left_track_15.mux_l2_in_0_/X VGND VGND VPWR VPWR sky130_fd_sc_hd__mux2_1
XFILLER_18_239 VGND VGND VPWR VPWR sky130_fd_sc_hd__decap_12
XFILLER_24_209 VGND VGND VPWR VPWR sky130_fd_sc_hd__decap_4
Xmem_top_track_18.sky130_fd_sc_hd__dfxbp_1_1_ mux_top_track_18.mux_l1_in_0_/S mux_top_track_18.mux_l2_in_0_/S
+ mem_top_track_18.sky130_fd_sc_hd__dfxbp_1_1_/Q_N prog_clk VGND VGND VPWR VPWR sky130_fd_sc_hd__dfxbp_1
XANTENNA_mux_top_track_2.mux_l2_in_0__A0 mux_top_track_2.mux_l1_in_1_/X VGND VGND
+ VPWR VPWR sky130_fd_sc_hd__diode_2
XFILLER_4_80 VGND VGND VPWR VPWR sky130_fd_sc_hd__decap_8
XANTENNA_mux_top_track_26.sky130_fd_sc_hd__buf_4_0__A mux_top_track_26.mux_l2_in_0_/X
+ VGND VGND VPWR VPWR sky130_fd_sc_hd__diode_2
XANTENNA_mux_top_track_6.mux_l2_in_0__S mux_top_track_6.mux_l2_in_0_/S VGND VGND VPWR
+ VPWR sky130_fd_sc_hd__diode_2
XFILLER_23_242 VGND VGND VPWR VPWR sky130_fd_sc_hd__fill_2
XFILLER_0_27 VGND VGND VPWR VPWR sky130_fd_sc_hd__decap_4
XANTENNA_mem_top_track_28.sky130_fd_sc_hd__dfxbp_1_0__CLK prog_clk VGND VGND VPWR
+ VPWR sky130_fd_sc_hd__diode_2
XFILLER_29_3 VGND VGND VPWR VPWR sky130_fd_sc_hd__decap_3
XFILLER_34_55 VGND VGND VPWR VPWR sky130_fd_sc_hd__fill_2
XFILLER_34_11 VGND VGND VPWR VPWR sky130_fd_sc_hd__fill_2
Xmux_left_track_7.mux_l2_in_0_ mux_left_track_7.mux_l1_in_1_/X mux_left_track_7.mux_l1_in_0_/X
+ mux_left_track_7.mux_l2_in_0_/S mux_left_track_7.mux_l2_in_0_/X VGND VGND VPWR VPWR
+ sky130_fd_sc_hd__mux2_1
XFILLER_11_245 VGND VGND VPWR VPWR sky130_fd_sc_hd__decap_12
X_042_ _042_/HI _042_/LO VGND VGND VPWR VPWR sky130_fd_sc_hd__conb_1
XFILLER_37_131 VGND VGND VPWR VPWR sky130_fd_sc_hd__fill_2
Xmux_top_track_0.mux_l3_in_0_ mux_top_track_0.mux_l2_in_1_/X mux_top_track_0.mux_l2_in_0_/X
+ mux_top_track_0.mux_l3_in_0_/S mux_top_track_0.mux_l3_in_0_/X VGND VGND VPWR VPWR
+ sky130_fd_sc_hd__mux2_1
XANTENNA__072__A chany_top_in[5] VGND VGND VPWR VPWR sky130_fd_sc_hd__diode_2
XFILLER_20_24 VGND VGND VPWR VPWR sky130_fd_sc_hd__decap_4
XFILLER_28_197 VGND VGND VPWR VPWR sky130_fd_sc_hd__decap_12
XFILLER_6_15 VGND VGND VPWR VPWR sky130_fd_sc_hd__decap_12
XFILLER_20_7 VGND VGND VPWR VPWR sky130_fd_sc_hd__fill_2
XFILLER_34_178 VGND VGND VPWR VPWR sky130_fd_sc_hd__decap_12
XFILLER_34_145 VGND VGND VPWR VPWR sky130_fd_sc_hd__decap_8
XANTENNA_mux_top_track_20.mux_l1_in_0__S mux_top_track_20.mux_l1_in_0_/S VGND VGND
+ VPWR VPWR sky130_fd_sc_hd__diode_2
XFILLER_19_175 VGND VGND VPWR VPWR sky130_fd_sc_hd__fill_2
Xmux_left_track_7.mux_l1_in_1_ left_top_grid_pin_47_ left_top_grid_pin_45_ mux_left_track_7.mux_l1_in_0_/S
+ mux_left_track_7.mux_l1_in_1_/X VGND VGND VPWR VPWR sky130_fd_sc_hd__mux2_1
XANTENNA_mux_left_track_1.mux_l3_in_0__S mux_left_track_1.mux_l3_in_0_/S VGND VGND
+ VPWR VPWR sky130_fd_sc_hd__diode_2
XFILLER_25_112 VGND VGND VPWR VPWR sky130_fd_sc_hd__fill_2
XFILLER_25_123 VGND VGND VPWR VPWR sky130_fd_sc_hd__decap_4
XANTENNA_mem_left_track_13.sky130_fd_sc_hd__dfxbp_1_0__D mux_left_track_11.mux_l2_in_0_/S
+ VGND VGND VPWR VPWR sky130_fd_sc_hd__diode_2
XFILLER_15_24 VGND VGND VPWR VPWR sky130_fd_sc_hd__fill_2
XFILLER_15_57 VGND VGND VPWR VPWR sky130_fd_sc_hd__fill_2
XFILLER_31_78 VGND VGND VPWR VPWR sky130_fd_sc_hd__fill_2
XFILLER_0_211 VGND VGND VPWR VPWR sky130_fd_sc_hd__decap_6
XFILLER_16_189 VGND VGND VPWR VPWR sky130_fd_sc_hd__decap_12
XPHY_140 VGND VPWR sky130_fd_sc_hd__tapvpwrvgnd_1
XPHY_151 VGND VPWR sky130_fd_sc_hd__tapvpwrvgnd_1
XPHY_162 VGND VPWR sky130_fd_sc_hd__tapvpwrvgnd_1
XPHY_173 VGND VPWR sky130_fd_sc_hd__tapvpwrvgnd_1
XPHY_184 VGND VPWR sky130_fd_sc_hd__tapvpwrvgnd_1
XPHY_195 VGND VPWR sky130_fd_sc_hd__tapvpwrvgnd_1
XANTENNA_mux_left_track_7.mux_l2_in_1__S mux_left_track_7.mux_l2_in_0_/S VGND VGND
+ VPWR VPWR sky130_fd_sc_hd__diode_2
Xmux_top_track_0.mux_l2_in_1_ _035_/HI mux_top_track_0.mux_l1_in_2_/X mux_top_track_0.mux_l2_in_0_/S
+ mux_top_track_0.mux_l2_in_1_/X VGND VGND VPWR VPWR sky130_fd_sc_hd__mux2_1
XFILLER_39_237 VGND VGND VPWR VPWR sky130_fd_sc_hd__decap_6
XFILLER_39_204 VGND VGND VPWR VPWR sky130_fd_sc_hd__fill_2
XFILLER_30_192 VGND VGND VPWR VPWR sky130_fd_sc_hd__decap_12
XANTENNA_mux_left_track_1.mux_l1_in_1__A0 left_top_grid_pin_46_ VGND VGND VPWR VPWR
+ sky130_fd_sc_hd__diode_2
XANTENNA_mux_left_track_11.mux_l2_in_0__A0 _056_/HI VGND VGND VPWR VPWR sky130_fd_sc_hd__diode_2
XANTENNA_mux_top_track_2.mux_l1_in_1__A1 top_left_grid_pin_39_ VGND VGND VPWR VPWR
+ sky130_fd_sc_hd__diode_2
XFILLER_26_23 VGND VGND VPWR VPWR sky130_fd_sc_hd__fill_2
XFILLER_26_67 VGND VGND VPWR VPWR sky130_fd_sc_hd__decap_4
XFILLER_26_89 VGND VGND VPWR VPWR sky130_fd_sc_hd__decap_3
XFILLER_42_77 VGND VGND VPWR VPWR sky130_fd_sc_hd__decap_12
XFILLER_42_66 VGND VGND VPWR VPWR sky130_fd_sc_hd__decap_6
XFILLER_42_11 VGND VGND VPWR VPWR sky130_fd_sc_hd__fill_2
XFILLER_3_27 VGND VGND VPWR VPWR sky130_fd_sc_hd__decap_12
Xmux_top_track_22.sky130_fd_sc_hd__buf_4_0_ mux_top_track_22.mux_l2_in_0_/X _096_/A
+ VGND VGND VPWR VPWR sky130_fd_sc_hd__buf_1
XFILLER_8_141 VGND VGND VPWR VPWR sky130_fd_sc_hd__decap_12
XFILLER_12_36 VGND VGND VPWR VPWR sky130_fd_sc_hd__fill_2
XANTENNA__080__A _080_/A VGND VGND VPWR VPWR sky130_fd_sc_hd__diode_2
XFILLER_37_11 VGND VGND VPWR VPWR sky130_fd_sc_hd__fill_1
XFILLER_41_232 VGND VGND VPWR VPWR sky130_fd_sc_hd__decap_12
Xmux_top_track_0.mux_l1_in_2_ chanx_left_in[0] top_right_grid_pin_1_ mux_top_track_0.mux_l1_in_1_/S
+ mux_top_track_0.mux_l1_in_2_/X VGND VGND VPWR VPWR sky130_fd_sc_hd__mux2_1
XFILLER_26_251 VGND VGND VPWR VPWR sky130_fd_sc_hd__decap_12
XANTENNA_mux_top_track_2.mux_l2_in_0__A1 mux_top_track_2.mux_l1_in_0_/X VGND VGND
+ VPWR VPWR sky130_fd_sc_hd__diode_2
XFILLER_32_276 VGND VGND VPWR VPWR sky130_fd_sc_hd__fill_1
XANTENNA_mux_left_track_1.mux_l2_in_0__A0 mux_left_track_1.mux_l1_in_1_/X VGND VGND
+ VPWR VPWR sky130_fd_sc_hd__diode_2
XANTENNA_mux_top_track_14.mux_l1_in_0__A0 chanx_left_in[13] VGND VGND VPWR VPWR sky130_fd_sc_hd__diode_2
Xmem_top_track_18.sky130_fd_sc_hd__dfxbp_1_0_ mux_top_track_16.mux_l2_in_0_/S mux_top_track_18.mux_l1_in_0_/S
+ mem_top_track_18.sky130_fd_sc_hd__dfxbp_1_0_/Q_N prog_clk VGND VGND VPWR VPWR sky130_fd_sc_hd__dfxbp_1
Xmux_top_track_16.sky130_fd_sc_hd__buf_4_0_ mux_top_track_16.mux_l2_in_0_/X _099_/A
+ VGND VGND VPWR VPWR sky130_fd_sc_hd__buf_1
Xmux_top_track_22.mux_l1_in_0_ chanx_left_in[9] top_left_grid_pin_41_ mux_top_track_22.mux_l1_in_0_/S
+ mux_top_track_22.mux_l1_in_0_/X VGND VGND VPWR VPWR sky130_fd_sc_hd__mux2_1
XANTENNA_mem_top_track_4.sky130_fd_sc_hd__dfxbp_1_0__CLK prog_clk VGND VGND VPWR VPWR
+ sky130_fd_sc_hd__diode_2
XFILLER_23_57 VGND VGND VPWR VPWR sky130_fd_sc_hd__fill_2
XANTENNA__075__A _075_/A VGND VGND VPWR VPWR sky130_fd_sc_hd__diode_2
XANTENNA_mem_left_track_1.sky130_fd_sc_hd__dfxbp_1_2__D mux_left_track_1.mux_l2_in_0_/S
+ VGND VGND VPWR VPWR sky130_fd_sc_hd__diode_2
Xmux_top_track_34.mux_l2_in_0_ _049_/HI mux_top_track_34.mux_l1_in_0_/X mux_top_track_34.mux_l2_in_0_/S
+ mux_top_track_34.mux_l2_in_0_/X VGND VGND VPWR VPWR sky130_fd_sc_hd__mux2_1
XFILLER_14_276 VGND VGND VPWR VPWR sky130_fd_sc_hd__fill_1
Xmux_left_track_15.mux_l1_in_0_ left_top_grid_pin_45_ chany_top_in[13] mux_left_track_15.mux_l1_in_0_/S
+ mux_left_track_15.mux_l1_in_0_/X VGND VGND VPWR VPWR sky130_fd_sc_hd__mux2_1
XFILLER_18_24 VGND VGND VPWR VPWR sky130_fd_sc_hd__decap_4
XFILLER_18_46 VGND VGND VPWR VPWR sky130_fd_sc_hd__fill_1
XFILLER_34_78 VGND VGND VPWR VPWR sky130_fd_sc_hd__fill_2
XFILLER_34_23 VGND VGND VPWR VPWR sky130_fd_sc_hd__fill_2
XFILLER_11_257 VGND VGND VPWR VPWR sky130_fd_sc_hd__decap_12
XANTENNA_mux_top_track_6.sky130_fd_sc_hd__buf_4_0__A mux_top_track_6.mux_l3_in_0_/X
+ VGND VGND VPWR VPWR sky130_fd_sc_hd__diode_2
X_041_ _041_/HI _041_/LO VGND VGND VPWR VPWR sky130_fd_sc_hd__conb_1
Xmux_left_track_27.mux_l2_in_0_ _064_/HI mux_left_track_27.mux_l1_in_0_/X ccff_tail
+ mux_left_track_27.mux_l2_in_0_/X VGND VGND VPWR VPWR sky130_fd_sc_hd__mux2_1
Xmem_top_track_30.sky130_fd_sc_hd__dfxbp_1_1_ mux_top_track_30.mux_l1_in_0_/S mux_top_track_30.mux_l2_in_0_/S
+ mem_top_track_30.sky130_fd_sc_hd__dfxbp_1_1_/Q_N prog_clk VGND VGND VPWR VPWR sky130_fd_sc_hd__dfxbp_1
XANTENNA_mux_top_track_12.mux_l2_in_0__S mux_top_track_12.mux_l2_in_0_/S VGND VGND
+ VPWR VPWR sky130_fd_sc_hd__diode_2
XFILLER_37_154 VGND VGND VPWR VPWR sky130_fd_sc_hd__fill_2
XFILLER_37_110 VGND VGND VPWR VPWR sky130_fd_sc_hd__fill_2
XFILLER_29_56 VGND VGND VPWR VPWR sky130_fd_sc_hd__decap_3
XFILLER_28_143 VGND VGND VPWR VPWR sky130_fd_sc_hd__decap_8
XANTENNA_mem_top_track_24.sky130_fd_sc_hd__dfxbp_1_0__D mux_top_track_22.mux_l2_in_0_/S
+ VGND VGND VPWR VPWR sky130_fd_sc_hd__diode_2
XFILLER_6_27 VGND VGND VPWR VPWR sky130_fd_sc_hd__decap_4
XFILLER_3_220 VGND VGND VPWR VPWR sky130_fd_sc_hd__decap_12
XFILLER_19_132 VGND VGND VPWR VPWR sky130_fd_sc_hd__fill_2
XANTENNA_mem_left_track_3.sky130_fd_sc_hd__dfxbp_1_2__CLK prog_clk VGND VGND VPWR
+ VPWR sky130_fd_sc_hd__diode_2
XFILLER_34_102 VGND VGND VPWR VPWR sky130_fd_sc_hd__fill_2
XFILLER_19_187 VGND VGND VPWR VPWR sky130_fd_sc_hd__fill_2
Xmem_left_track_23.sky130_fd_sc_hd__dfxbp_1_1_ mux_left_track_23.mux_l1_in_0_/S mux_left_track_23.mux_l2_in_0_/S
+ mem_left_track_23.sky130_fd_sc_hd__dfxbp_1_1_/Q_N prog_clk VGND VGND VPWR VPWR sky130_fd_sc_hd__dfxbp_1
Xmux_left_track_7.mux_l1_in_0_ left_top_grid_pin_43_ chany_top_in[17] mux_left_track_7.mux_l1_in_0_/S
+ mux_left_track_7.mux_l1_in_0_/X VGND VGND VPWR VPWR sky130_fd_sc_hd__mux2_1
XANTENNA__083__A _083_/A VGND VGND VPWR VPWR sky130_fd_sc_hd__diode_2
Xmux_top_track_0.sky130_fd_sc_hd__buf_4_0_ mux_top_track_0.mux_l3_in_0_/X _107_/A
+ VGND VGND VPWR VPWR sky130_fd_sc_hd__buf_1
XFILLER_31_57 VGND VGND VPWR VPWR sky130_fd_sc_hd__fill_2
XANTENNA_mem_top_track_4.sky130_fd_sc_hd__dfxbp_1_0__D mux_top_track_2.mux_l3_in_0_/S
+ VGND VGND VPWR VPWR sky130_fd_sc_hd__diode_2
XFILLER_31_105 VGND VGND VPWR VPWR sky130_fd_sc_hd__fill_2
XPHY_130 VGND VPWR sky130_fd_sc_hd__tapvpwrvgnd_1
XPHY_141 VGND VPWR sky130_fd_sc_hd__tapvpwrvgnd_1
XPHY_152 VGND VPWR sky130_fd_sc_hd__tapvpwrvgnd_1
XFILLER_16_102 VGND VGND VPWR VPWR sky130_fd_sc_hd__decap_4
XFILLER_16_146 VGND VGND VPWR VPWR sky130_fd_sc_hd__decap_6
XPHY_163 VGND VPWR sky130_fd_sc_hd__tapvpwrvgnd_1
XPHY_174 VGND VPWR sky130_fd_sc_hd__tapvpwrvgnd_1
XPHY_185 VGND VPWR sky130_fd_sc_hd__tapvpwrvgnd_1
XPHY_196 VGND VPWR sky130_fd_sc_hd__tapvpwrvgnd_1
XFILLER_39_216 VGND VGND VPWR VPWR sky130_fd_sc_hd__fill_2
Xmux_top_track_0.mux_l2_in_0_ mux_top_track_0.mux_l1_in_1_/X mux_top_track_0.mux_l1_in_0_/X
+ mux_top_track_0.mux_l2_in_0_/S mux_top_track_0.mux_l2_in_0_/X VGND VGND VPWR VPWR
+ sky130_fd_sc_hd__mux2_1
XFILLER_39_249 VGND VGND VPWR VPWR sky130_fd_sc_hd__fill_2
XFILLER_22_149 VGND VGND VPWR VPWR sky130_fd_sc_hd__fill_2
XANTENNA_mux_left_track_1.mux_l1_in_1__A1 left_top_grid_pin_44_ VGND VGND VPWR VPWR
+ sky130_fd_sc_hd__diode_2
XANTENNA_mux_left_track_11.mux_l2_in_0__A1 mux_left_track_11.mux_l1_in_0_/X VGND VGND
+ VPWR VPWR sky130_fd_sc_hd__diode_2
XFILLER_13_105 VGND VGND VPWR VPWR sky130_fd_sc_hd__decap_4
XANTENNA__078__A _078_/A VGND VGND VPWR VPWR sky130_fd_sc_hd__diode_2
XFILLER_42_89 VGND VGND VPWR VPWR sky130_fd_sc_hd__decap_4
XFILLER_42_23 VGND VGND VPWR VPWR sky130_fd_sc_hd__decap_8
XFILLER_21_182 VGND VGND VPWR VPWR sky130_fd_sc_hd__fill_1