* NGSPICE file created from sb_3__3_.ext - technology: EFS8A

* Black-box entry subcircuit for scs8hd_decap_12 abstract view
.subckt scs8hd_decap_12 vgnd vpwr
.ends

* Black-box entry subcircuit for scs8hd_inv_1 abstract view
.subckt scs8hd_inv_1 A Y vgnd vpwr
.ends

* Black-box entry subcircuit for scs8hd_fill_1 abstract view
.subckt scs8hd_fill_1 vgnd vpwr
.ends

* Black-box entry subcircuit for scs8hd_diode_2 abstract view
.subckt scs8hd_diode_2 DIODE vgnd vpwr
.ends

* Black-box entry subcircuit for scs8hd_decap_8 abstract view
.subckt scs8hd_decap_8 vgnd vpwr
.ends

* Black-box entry subcircuit for scs8hd_decap_6 abstract view
.subckt scs8hd_decap_6 vgnd vpwr
.ends

* Black-box entry subcircuit for scs8hd_fill_2 abstract view
.subckt scs8hd_fill_2 vpwr vgnd
.ends

* Black-box entry subcircuit for scs8hd_ebufn_2 abstract view
.subckt scs8hd_ebufn_2 A TEB Z vgnd vpwr
.ends

* Black-box entry subcircuit for scs8hd_inv_8 abstract view
.subckt scs8hd_inv_8 A Y vgnd vpwr
.ends

* Black-box entry subcircuit for scs8hd_nor2_4 abstract view
.subckt scs8hd_nor2_4 A B Y vgnd vpwr
.ends

* Black-box entry subcircuit for scs8hd_decap_3 abstract view
.subckt scs8hd_decap_3 vgnd vpwr
.ends

* Black-box entry subcircuit for scs8hd_buf_1 abstract view
.subckt scs8hd_buf_1 A X vgnd vpwr
.ends

* Black-box entry subcircuit for scs8hd_tapvpwrvgnd_1 abstract view
.subckt scs8hd_tapvpwrvgnd_1 vgnd vpwr
.ends

* Black-box entry subcircuit for scs8hd_decap_4 abstract view
.subckt scs8hd_decap_4 vgnd vpwr
.ends

* Black-box entry subcircuit for scs8hd_or4_4 abstract view
.subckt scs8hd_or4_4 A B C D X vgnd vpwr
.ends

* Black-box entry subcircuit for scs8hd_lpflow_inputisolatch_1 abstract view
.subckt scs8hd_lpflow_inputisolatch_1 D Q SLEEPB vgnd vpwr
.ends

* Black-box entry subcircuit for scs8hd_buf_2 abstract view
.subckt scs8hd_buf_2 A X vgnd vpwr
.ends

* Black-box entry subcircuit for scs8hd_nor3_4 abstract view
.subckt scs8hd_nor3_4 A B C Y vgnd vpwr
.ends

* Black-box entry subcircuit for scs8hd_or2_4 abstract view
.subckt scs8hd_or2_4 A B X vgnd vpwr
.ends

* Black-box entry subcircuit for scs8hd_conb_1 abstract view
.subckt scs8hd_conb_1 HI LO vgnd vpwr
.ends

* Black-box entry subcircuit for scs8hd_nand2_4 abstract view
.subckt scs8hd_nand2_4 A B Y vgnd vpwr
.ends

.subckt sb_3__3_ address[0] address[1] address[2] address[3] address[4] address[5]
+ bottom_left_grid_pin_13_ bottom_right_grid_pin_11_ bottom_right_grid_pin_13_ bottom_right_grid_pin_15_
+ bottom_right_grid_pin_1_ bottom_right_grid_pin_3_ bottom_right_grid_pin_5_ bottom_right_grid_pin_7_
+ bottom_right_grid_pin_9_ chanx_left_in[0] chanx_left_in[1] chanx_left_in[2] chanx_left_in[3]
+ chanx_left_in[4] chanx_left_in[5] chanx_left_in[6] chanx_left_in[7] chanx_left_in[8]
+ chanx_left_out[0] chanx_left_out[1] chanx_left_out[2] chanx_left_out[3] chanx_left_out[4]
+ chanx_left_out[5] chanx_left_out[6] chanx_left_out[7] chanx_left_out[8] chany_bottom_in[0]
+ chany_bottom_in[1] chany_bottom_in[2] chany_bottom_in[3] chany_bottom_in[4] chany_bottom_in[5]
+ chany_bottom_in[6] chany_bottom_in[7] chany_bottom_in[8] chany_bottom_out[0] chany_bottom_out[1]
+ chany_bottom_out[2] chany_bottom_out[3] chany_bottom_out[4] chany_bottom_out[5]
+ chany_bottom_out[6] chany_bottom_out[7] chany_bottom_out[8] data_in enable left_bottom_grid_pin_12_
+ left_top_grid_pin_11_ left_top_grid_pin_13_ left_top_grid_pin_15_ left_top_grid_pin_1_
+ left_top_grid_pin_3_ left_top_grid_pin_5_ left_top_grid_pin_7_ left_top_grid_pin_9_
+ vpwr vgnd
XFILLER_22_122 vgnd vpwr scs8hd_decap_12
Xmux_bottom_track_1.INVTX1_1_.scs8hd_inv_1 chanx_left_in[1] mux_bottom_track_1.INVTX1_1_.scs8hd_inv_1/Y
+ vgnd vpwr scs8hd_inv_1
XFILLER_26_30 vgnd vpwr scs8hd_fill_1
XANTENNA_mem_bottom_track_7.LATCH_1_.latch_D data_in vgnd vpwr scs8hd_diode_2
XFILLER_27_269 vgnd vpwr scs8hd_decap_8
XANTENNA_mux_left_track_9.mux_l2_in_0_.TGATE_1_.scs8hd_ebufn_2_A _225_/HI vgnd vpwr
+ scs8hd_diode_2
XFILLER_12_32 vgnd vpwr scs8hd_decap_6
XFILLER_37_62 vgnd vpwr scs8hd_decap_12
XANTENNA__108__B enable vgnd vpwr scs8hd_diode_2
XANTENNA__124__A _096_/X vgnd vpwr scs8hd_diode_2
XFILLER_5_195 vpwr vgnd scs8hd_fill_2
XFILLER_24_239 vgnd vpwr scs8hd_decap_12
XANTENNA_mux_left_track_5.mux_l1_in_0_.TGATE_1_.scs8hd_ebufn_2_A mux_left_track_5.INVTX1_1_.scs8hd_inv_1/Y
+ vgnd vpwr scs8hd_diode_2
Xmux_left_track_1.mux_l2_in_0_.TGATE_0_.scs8hd_ebufn_2 mux_left_track_1.mux_l2_in_0_.TGATE_0_.scs8hd_ebufn_2/A
+ _190_/A mux_left_track_1.tap_buf4_0_.scs8hd_inv_1/A vgnd vpwr scs8hd_ebufn_2
XANTENNA_mux_left_track_3.INVTX1_1_.scs8hd_inv_1_A left_top_grid_pin_3_ vgnd vpwr
+ scs8hd_diode_2
X_200_ _200_/A _200_/Y vgnd vpwr scs8hd_inv_8
XFILLER_23_97 vpwr vgnd scs8hd_fill_2
X_131_ _129_/X _130_/X _131_/Y vgnd vpwr scs8hd_nor2_4
XFILLER_2_154 vgnd vpwr scs8hd_decap_3
XANTENNA__110__C _100_/X vgnd vpwr scs8hd_diode_2
XANTENNA__119__A _096_/X vgnd vpwr scs8hd_diode_2
XFILLER_9_66 vpwr vgnd scs8hd_fill_2
Xmux_bottom_track_9.tap_buf4_0_.scs8hd_inv_1 mux_bottom_track_9.tap_buf4_0_.scs8hd_inv_1/A
+ _239_/A vgnd vpwr scs8hd_inv_1
XANTENNA_mem_bottom_track_17.LATCH_0_.latch_D data_in vgnd vpwr scs8hd_diode_2
Xmux_bottom_track_1.mux_l1_in_0_.TGATE_1_.scs8hd_ebufn_2 mux_bottom_track_1.INVTX1_1_.scs8hd_inv_1/Y
+ _173_/Y mux_bottom_track_1.mux_l1_in_0_.TGATE_0_.scs8hd_ebufn_2/Z vgnd vpwr scs8hd_ebufn_2
XFILLER_18_53 vgnd vpwr scs8hd_decap_8
XFILLER_34_30 vgnd vpwr scs8hd_fill_1
X_114_ _114_/A _114_/X vgnd vpwr scs8hd_buf_1
XFILLER_7_235 vpwr vgnd scs8hd_fill_2
XANTENNA_mux_left_track_15.mux_l2_in_0_.TGATE_1_.scs8hd_ebufn_2_TEB _204_/Y vgnd vpwr
+ scs8hd_diode_2
XFILLER_38_117 vgnd vpwr scs8hd_decap_12
XFILLER_29_74 vgnd vpwr scs8hd_decap_12
Xmux_left_track_5.mux_l2_in_0_.TGATE_1_.scs8hd_ebufn_2 _223_/HI _194_/Y mux_left_track_5.tap_buf4_0_.scs8hd_inv_1/A
+ vgnd vpwr scs8hd_ebufn_2
XANTENNA_mem_left_track_11.LATCH_0_.latch_D data_in vgnd vpwr scs8hd_diode_2
XANTENNA__116__B _117_/B vgnd vpwr scs8hd_diode_2
XANTENNA_mux_bottom_track_17.mux_l1_in_0_.TGATE_1_.scs8hd_ebufn_2_A mux_bottom_track_17.INVTX1_1_.scs8hd_inv_1/Y
+ vgnd vpwr scs8hd_diode_2
XFILLER_6_67 vpwr vgnd scs8hd_fill_2
XANTENNA__132__A address[0] vgnd vpwr scs8hd_diode_2
XFILLER_13_3 vpwr vgnd scs8hd_fill_2
XFILLER_40_178 vgnd vpwr scs8hd_decap_12
XFILLER_31_31 vgnd vpwr scs8hd_decap_12
XFILLER_15_54 vpwr vgnd scs8hd_fill_2
XFILLER_15_65 vgnd vpwr scs8hd_decap_3
XFILLER_31_86 vgnd vpwr scs8hd_decap_12
XANTENNA_mux_bottom_track_15.mux_l1_in_0_.TGATE_1_.scs8hd_ebufn_2_TEB _187_/Y vgnd
+ vpwr scs8hd_diode_2
XFILLER_31_123 vgnd vpwr scs8hd_decap_12
XANTENNA__127__A _096_/X vgnd vpwr scs8hd_diode_2
XPHY_170 vgnd vpwr scs8hd_tapvpwrvgnd_1
XPHY_192 vgnd vpwr scs8hd_tapvpwrvgnd_1
XPHY_181 vgnd vpwr scs8hd_tapvpwrvgnd_1
XFILLER_39_245 vgnd vpwr scs8hd_decap_12
XFILLER_22_134 vgnd vpwr scs8hd_decap_12
XFILLER_22_101 vgnd vpwr scs8hd_fill_1
XFILLER_13_101 vpwr vgnd scs8hd_fill_2
XFILLER_13_123 vgnd vpwr scs8hd_decap_3
XFILLER_42_63 vgnd vpwr scs8hd_decap_12
XFILLER_3_68 vpwr vgnd scs8hd_fill_2
XFILLER_3_57 vpwr vgnd scs8hd_fill_2
XFILLER_36_215 vgnd vpwr scs8hd_decap_12
XFILLER_42_218 vgnd vpwr scs8hd_decap_12
XFILLER_6_119 vgnd vpwr scs8hd_decap_4
XANTENNA__230__A _230_/A vgnd vpwr scs8hd_diode_2
XFILLER_37_74 vgnd vpwr scs8hd_decap_12
XANTENNA_mux_left_track_17.mux_l2_in_0_.TGATE_0_.scs8hd_ebufn_2_TEB _206_/A vgnd vpwr
+ scs8hd_diode_2
XFILLER_18_215 vgnd vpwr scs8hd_decap_12
Xmux_left_track_13.tap_buf4_0_.scs8hd_inv_1 mux_left_track_13.tap_buf4_0_.scs8hd_inv_1/A
+ _228_/A vgnd vpwr scs8hd_inv_1
XANTENNA__124__B _125_/B vgnd vpwr scs8hd_diode_2
XANTENNA_mux_bottom_track_1.mux_l1_in_0_.TGATE_1_.scs8hd_ebufn_2_TEB _173_/Y vgnd
+ vpwr scs8hd_diode_2
XANTENNA__140__A _097_/X vgnd vpwr scs8hd_diode_2
XANTENNA_mem_bottom_track_15.LATCH_0_.latch_SLEEPB _136_/Y vgnd vpwr scs8hd_diode_2
XFILLER_32_251 vgnd vpwr scs8hd_decap_12
XANTENNA_mux_left_track_9.INVTX1_0_.scs8hd_inv_1_A chany_bottom_in[3] vgnd vpwr scs8hd_diode_2
X_130_ _122_/X _114_/X _130_/C _103_/X _130_/X vgnd vpwr scs8hd_or4_4
XFILLER_2_100 vpwr vgnd scs8hd_fill_2
XFILLER_2_199 vpwr vgnd scs8hd_fill_2
XFILLER_2_144 vgnd vpwr scs8hd_decap_4
XANTENNA__110__D _109_/X vgnd vpwr scs8hd_diode_2
XANTENNA_mux_left_track_5.tap_buf4_0_.scs8hd_inv_1_A mux_left_track_5.tap_buf4_0_.scs8hd_inv_1/A
+ vgnd vpwr scs8hd_diode_2
XFILLER_0_58 vpwr vgnd scs8hd_fill_2
XANTENNA__119__B _120_/B vgnd vpwr scs8hd_diode_2
XANTENNA__135__A _129_/X vgnd vpwr scs8hd_diode_2
XFILLER_20_276 vgnd vpwr scs8hd_fill_1
Xmux_left_track_5.tap_buf4_0_.scs8hd_inv_1 mux_left_track_5.tap_buf4_0_.scs8hd_inv_1/A
+ _232_/A vgnd vpwr scs8hd_inv_1
XANTENNA_mux_bottom_track_17.mux_l1_in_0_.TGATE_0_.scs8hd_ebufn_2_TEB _189_/A vgnd
+ vpwr scs8hd_diode_2
XFILLER_18_32 vgnd vpwr scs8hd_decap_8
XFILLER_18_76 vgnd vpwr scs8hd_decap_4
XFILLER_7_214 vgnd vpwr scs8hd_fill_1
XANTENNA_mux_left_track_7.mux_l1_in_0_.TGATE_1_.scs8hd_ebufn_2_TEB _197_/Y vgnd vpwr
+ scs8hd_diode_2
X_113_ address[2] _114_/A vgnd vpwr scs8hd_inv_8
XFILLER_11_221 vgnd vpwr scs8hd_decap_4
XFILLER_11_232 vpwr vgnd scs8hd_fill_2
XANTENNA_mem_left_track_1.LATCH_0_.latch_SLEEPB _145_/Y vgnd vpwr scs8hd_diode_2
XFILLER_38_129 vgnd vpwr scs8hd_decap_12
XFILLER_37_184 vgnd vpwr scs8hd_decap_12
XFILLER_20_22 vgnd vpwr scs8hd_decap_8
XFILLER_20_55 vgnd vpwr scs8hd_decap_8
XFILLER_29_86 vgnd vpwr scs8hd_decap_12
XANTENNA_mux_bottom_track_3.mux_l2_in_0_.TGATE_0_.scs8hd_ebufn_2_A mux_bottom_track_3.mux_l2_in_0_.TGATE_0_.scs8hd_ebufn_2/A
+ vgnd vpwr scs8hd_diode_2
Xmux_left_track_3.mux_l1_in_0_.TGATE_0_.scs8hd_ebufn_2 mux_left_track_3.INVTX1_0_.scs8hd_inv_1/Y
+ _193_/A mux_left_track_3.mux_l1_in_0_.TGATE_1_.scs8hd_ebufn_2/Z vgnd vpwr scs8hd_ebufn_2
XFILLER_19_184 vgnd vpwr scs8hd_decap_12
XFILLER_34_154 vgnd vpwr scs8hd_decap_12
Xmem_left_track_5.LATCH_1_.latch data_in _194_/A _150_/Y vgnd vpwr scs8hd_lpflow_inputisolatch_1
XANTENNA_mem_bottom_track_13.LATCH_1_.latch_SLEEPB _131_/Y vgnd vpwr scs8hd_diode_2
XFILLER_25_110 vgnd vpwr scs8hd_decap_12
XFILLER_15_33 vpwr vgnd scs8hd_fill_2
XFILLER_31_43 vgnd vpwr scs8hd_decap_12
XFILLER_31_98 vgnd vpwr scs8hd_decap_12
XANTENNA__233__A _233_/A vgnd vpwr scs8hd_diode_2
XFILLER_16_110 vgnd vpwr scs8hd_fill_1
XFILLER_16_132 vpwr vgnd scs8hd_fill_2
XFILLER_31_135 vgnd vpwr scs8hd_decap_12
XPHY_193 vgnd vpwr scs8hd_tapvpwrvgnd_1
XPHY_182 vgnd vpwr scs8hd_tapvpwrvgnd_1
Xmux_left_track_17.INVTX1_1_.scs8hd_inv_1 left_bottom_grid_pin_12_ mux_left_track_17.INVTX1_1_.scs8hd_inv_1/Y
+ vgnd vpwr scs8hd_inv_1
XANTENNA_mux_bottom_track_3.mux_l1_in_0_.TGATE_0_.scs8hd_ebufn_2_TEB _175_/A vgnd
+ vpwr scs8hd_diode_2
XANTENNA__127__B _128_/B vgnd vpwr scs8hd_diode_2
XPHY_160 vgnd vpwr scs8hd_tapvpwrvgnd_1
XPHY_171 vgnd vpwr scs8hd_tapvpwrvgnd_1
XANTENNA__143__A _097_/X vgnd vpwr scs8hd_diode_2
XFILLER_39_257 vgnd vpwr scs8hd_decap_12
XFILLER_30_190 vgnd vpwr scs8hd_decap_12
XFILLER_22_146 vgnd vpwr scs8hd_decap_6
XANTENNA__228__A _228_/A vgnd vpwr scs8hd_diode_2
XANTENNA_mem_left_track_1.LATCH_0_.latch_D data_in vgnd vpwr scs8hd_diode_2
XFILLER_13_135 vpwr vgnd scs8hd_fill_2
XFILLER_13_179 vpwr vgnd scs8hd_fill_2
XFILLER_42_75 vgnd vpwr scs8hd_decap_12
XFILLER_3_36 vpwr vgnd scs8hd_fill_2
Xmux_bottom_track_17.tap_buf4_0_.scs8hd_inv_1 mux_bottom_track_17.tap_buf4_0_.scs8hd_inv_1/A
+ _235_/A vgnd vpwr scs8hd_inv_1
XFILLER_36_227 vgnd vpwr scs8hd_decap_12
XANTENNA__138__A address[4] vgnd vpwr scs8hd_diode_2
Xmux_left_track_7.mux_l1_in_0_.TGATE_1_.scs8hd_ebufn_2 mux_left_track_7.INVTX1_1_.scs8hd_inv_1/Y
+ _197_/Y mux_left_track_7.mux_l1_in_0_.TGATE_1_.scs8hd_ebufn_2/Z vgnd vpwr scs8hd_ebufn_2
XFILLER_10_116 vpwr vgnd scs8hd_fill_2
XFILLER_12_12 vpwr vgnd scs8hd_fill_2
XFILLER_12_23 vpwr vgnd scs8hd_fill_2
XFILLER_12_78 vgnd vpwr scs8hd_decap_3
XANTENNA_mux_left_track_9.mux_l1_in_0_.TGATE_0_.scs8hd_ebufn_2_TEB _199_/A vgnd vpwr
+ scs8hd_diode_2
XFILLER_37_86 vgnd vpwr scs8hd_decap_12
XFILLER_33_208 vgnd vpwr scs8hd_decap_12
XFILLER_18_227 vgnd vpwr scs8hd_decap_12
XFILLER_5_153 vpwr vgnd scs8hd_fill_2
XFILLER_5_175 vgnd vpwr scs8hd_decap_8
XANTENNA__140__B _098_/X vgnd vpwr scs8hd_diode_2
XFILLER_32_263 vgnd vpwr scs8hd_decap_12
XFILLER_24_208 vgnd vpwr scs8hd_decap_6
XFILLER_23_33 vgnd vpwr scs8hd_decap_4
XANTENNA__241__A _241_/A vgnd vpwr scs8hd_diode_2
XFILLER_3_3 vgnd vpwr scs8hd_decap_4
XFILLER_2_178 vpwr vgnd scs8hd_fill_2
XFILLER_0_48 vgnd vpwr scs8hd_fill_1
XFILLER_9_24 vpwr vgnd scs8hd_fill_2
XFILLER_9_35 vpwr vgnd scs8hd_fill_2
X_189_ _189_/A _189_/Y vgnd vpwr scs8hd_inv_8
XANTENNA__135__B _135_/B vgnd vpwr scs8hd_diode_2
XFILLER_36_3 vgnd vpwr scs8hd_decap_12
XANTENNA__151__A _132_/X vgnd vpwr scs8hd_diode_2
XFILLER_18_22 vgnd vpwr scs8hd_decap_8
XFILLER_34_32 vgnd vpwr scs8hd_decap_12
XANTENNA__236__A _236_/A vgnd vpwr scs8hd_diode_2
XFILLER_7_248 vpwr vgnd scs8hd_fill_2
XFILLER_7_259 vpwr vgnd scs8hd_fill_2
X_112_ _125_/A _112_/B _112_/Y vgnd vpwr scs8hd_nor2_4
XANTENNA__146__A address[3] vgnd vpwr scs8hd_diode_2
XFILLER_37_196 vgnd vpwr scs8hd_decap_12
XFILLER_29_10 vgnd vpwr scs8hd_decap_12
XFILLER_29_98 vgnd vpwr scs8hd_decap_12
XFILLER_29_54 vgnd vpwr scs8hd_decap_6
XFILLER_28_152 vgnd vpwr scs8hd_fill_1
XANTENNA_mux_bottom_track_11.mux_l2_in_0_.TGATE_0_.scs8hd_ebufn_2_A mux_bottom_track_11.mux_l1_in_0_.TGATE_1_.scs8hd_ebufn_2/Z
+ vgnd vpwr scs8hd_diode_2
XFILLER_6_36 vgnd vpwr scs8hd_decap_3
XFILLER_34_166 vgnd vpwr scs8hd_decap_12
XFILLER_19_196 vgnd vpwr scs8hd_decap_12
XANTENNA_mux_bottom_track_11.INVTX1_1_.scs8hd_inv_1_A chanx_left_in[6] vgnd vpwr scs8hd_diode_2
XFILLER_15_89 vpwr vgnd scs8hd_fill_2
XFILLER_31_55 vgnd vpwr scs8hd_decap_6
XFILLER_0_243 vgnd vpwr scs8hd_decap_3
XFILLER_31_147 vgnd vpwr scs8hd_decap_12
XPHY_194 vgnd vpwr scs8hd_tapvpwrvgnd_1
XPHY_183 vgnd vpwr scs8hd_tapvpwrvgnd_1
XPHY_150 vgnd vpwr scs8hd_tapvpwrvgnd_1
XPHY_161 vgnd vpwr scs8hd_tapvpwrvgnd_1
XPHY_172 vgnd vpwr scs8hd_tapvpwrvgnd_1
XANTENNA__143__B _098_/X vgnd vpwr scs8hd_diode_2
XFILLER_39_269 vgnd vpwr scs8hd_decap_8
XANTENNA_mux_bottom_track_7.tap_buf4_0_.scs8hd_inv_1_A mux_bottom_track_7.tap_buf4_0_.scs8hd_inv_1/A
+ vgnd vpwr scs8hd_diode_2
XFILLER_42_87 vgnd vpwr scs8hd_decap_6
XFILLER_42_32 vgnd vpwr scs8hd_decap_12
XFILLER_9_118 vpwr vgnd scs8hd_fill_2
XFILLER_13_114 vpwr vgnd scs8hd_fill_2
XFILLER_13_158 vpwr vgnd scs8hd_fill_2
XFILLER_3_26 vgnd vpwr scs8hd_decap_4
XFILLER_36_239 vgnd vpwr scs8hd_decap_12
XANTENNA__138__B _166_/D vgnd vpwr scs8hd_diode_2
XANTENNA__154__A _152_/X vgnd vpwr scs8hd_diode_2
XANTENNA_mux_left_track_17.mux_l2_in_0_.TGATE_0_.scs8hd_ebufn_2_A mux_left_track_17.mux_l2_in_0_.TGATE_0_.scs8hd_ebufn_2/A
+ vgnd vpwr scs8hd_diode_2
Xmux_left_track_15.INVTX1_1_.scs8hd_inv_1 left_top_grid_pin_15_ mux_left_track_15.INVTX1_1_.scs8hd_inv_1/Y
+ vgnd vpwr scs8hd_inv_1
XFILLER_12_57 vgnd vpwr scs8hd_fill_1
XFILLER_37_10 vgnd vpwr scs8hd_decap_12
XFILLER_41_220 vgnd vpwr scs8hd_decap_12
XFILLER_37_98 vgnd vpwr scs8hd_decap_12
XANTENNA__239__A _239_/A vgnd vpwr scs8hd_diode_2
XFILLER_18_239 vgnd vpwr scs8hd_decap_12
XFILLER_5_121 vgnd vpwr scs8hd_fill_1
XFILLER_5_132 vpwr vgnd scs8hd_fill_2
XANTENNA__140__C _139_/X vgnd vpwr scs8hd_diode_2
XFILLER_5_165 vgnd vpwr scs8hd_fill_1
XFILLER_5_187 vpwr vgnd scs8hd_fill_2
Xmem_left_track_15.LATCH_0_.latch data_in _205_/A _169_/Y vgnd vpwr scs8hd_lpflow_inputisolatch_1
XANTENNA__149__A address[3] vgnd vpwr scs8hd_diode_2
XANTENNA_mux_left_track_13.mux_l1_in_0_.TGATE_0_.scs8hd_ebufn_2_A mux_left_track_13.INVTX1_0_.scs8hd_inv_1/Y
+ vgnd vpwr scs8hd_diode_2
Xmux_bottom_track_17.mux_l2_in_0_.TGATE_0_.scs8hd_ebufn_2 mux_bottom_track_17.mux_l2_in_0_.TGATE_0_.scs8hd_ebufn_2/A
+ _188_/A mux_bottom_track_17.tap_buf4_0_.scs8hd_inv_1/A vgnd vpwr scs8hd_ebufn_2
XFILLER_4_91 vgnd vpwr scs8hd_fill_1
XFILLER_23_220 vgnd vpwr scs8hd_decap_12
XFILLER_15_209 vgnd vpwr scs8hd_decap_12
XANTENNA_mem_left_track_13.LATCH_0_.latch_SLEEPB _165_/Y vgnd vpwr scs8hd_diode_2
XFILLER_2_124 vpwr vgnd scs8hd_fill_2
XANTENNA_mux_bottom_track_1.INVTX1_0_.scs8hd_inv_1_A bottom_right_grid_pin_1_ vgnd
+ vpwr scs8hd_diode_2
XFILLER_0_27 vpwr vgnd scs8hd_fill_2
XFILLER_9_58 vgnd vpwr scs8hd_decap_3
X_188_ _188_/A _188_/Y vgnd vpwr scs8hd_inv_8
XANTENNA__151__B _149_/X vgnd vpwr scs8hd_diode_2
XANTENNA_mux_bottom_track_5.INVTX1_1_.scs8hd_inv_1_A chanx_left_in[3] vgnd vpwr scs8hd_diode_2
XFILLER_34_44 vgnd vpwr scs8hd_decap_12
X_111_ _096_/X _112_/B _111_/Y vgnd vpwr scs8hd_nor2_4
XFILLER_7_227 vpwr vgnd scs8hd_fill_2
XFILLER_11_245 vgnd vpwr scs8hd_decap_12
XANTENNA__146__B _114_/X vgnd vpwr scs8hd_diode_2
XANTENNA__162__A _165_/A vgnd vpwr scs8hd_diode_2
XFILLER_29_22 vgnd vpwr scs8hd_decap_12
XFILLER_20_35 vgnd vpwr scs8hd_decap_4
XANTENNA_mem_bottom_track_7.LATCH_0_.latch_SLEEPB _120_/Y vgnd vpwr scs8hd_diode_2
XFILLER_3_241 vgnd vpwr scs8hd_fill_1
XANTENNA_mem_bottom_track_13.LATCH_1_.latch_D data_in vgnd vpwr scs8hd_diode_2
XFILLER_20_7 vpwr vgnd scs8hd_fill_2
XFILLER_34_178 vgnd vpwr scs8hd_decap_12
XANTENNA__157__A _122_/X vgnd vpwr scs8hd_diode_2
XANTENNA_mem_bottom_track_9.LATCH_0_.latch_D data_in vgnd vpwr scs8hd_diode_2
XANTENNA_mux_bottom_track_17.INVTX1_0_.scs8hd_inv_1_A bottom_left_grid_pin_13_ vgnd
+ vpwr scs8hd_diode_2
XFILLER_25_123 vgnd vpwr scs8hd_decap_12
XFILLER_16_145 vgnd vpwr scs8hd_decap_8
XFILLER_31_159 vgnd vpwr scs8hd_decap_12
XPHY_195 vgnd vpwr scs8hd_tapvpwrvgnd_1
XPHY_184 vgnd vpwr scs8hd_tapvpwrvgnd_1
XPHY_140 vgnd vpwr scs8hd_tapvpwrvgnd_1
XPHY_151 vgnd vpwr scs8hd_tapvpwrvgnd_1
XANTENNA_mem_left_track_11.LATCH_1_.latch_SLEEPB _161_/Y vgnd vpwr scs8hd_diode_2
XPHY_162 vgnd vpwr scs8hd_tapvpwrvgnd_1
XPHY_173 vgnd vpwr scs8hd_tapvpwrvgnd_1
XANTENNA__143__C _139_/X vgnd vpwr scs8hd_diode_2
Xmux_left_track_3.mux_l2_in_0_.TGATE_1_.scs8hd_ebufn_2 _222_/HI _192_/Y mux_left_track_3.tap_buf4_0_.scs8hd_inv_1/A
+ vgnd vpwr scs8hd_ebufn_2
XFILLER_11_3 vgnd vpwr scs8hd_decap_4
Xmem_left_track_1.LATCH_1_.latch data_in _190_/A _144_/Y vgnd vpwr scs8hd_lpflow_inputisolatch_1
XANTENNA_mux_left_track_17.mux_l1_in_0_.TGATE_1_.scs8hd_ebufn_2_TEB _207_/Y vgnd vpwr
+ scs8hd_diode_2
XANTENNA_mux_left_track_11.INVTX1_1_.scs8hd_inv_1_A left_top_grid_pin_11_ vgnd vpwr
+ scs8hd_diode_2
XFILLER_42_44 vgnd vpwr scs8hd_decap_12
XFILLER_8_163 vpwr vgnd scs8hd_fill_2
XANTENNA__154__B _156_/B vgnd vpwr scs8hd_diode_2
XANTENNA__170__A _109_/X vgnd vpwr scs8hd_diode_2
XFILLER_10_129 vpwr vgnd scs8hd_fill_2
XFILLER_37_22 vgnd vpwr scs8hd_decap_12
XFILLER_41_232 vgnd vpwr scs8hd_decap_12
XFILLER_26_251 vgnd vpwr scs8hd_decap_12
XANTENNA__140__D _103_/A vgnd vpwr scs8hd_diode_2
XANTENNA_mem_bottom_track_5.LATCH_1_.latch_SLEEPB _116_/Y vgnd vpwr scs8hd_diode_2
XANTENNA__149__B _114_/X vgnd vpwr scs8hd_diode_2
XFILLER_32_276 vgnd vpwr scs8hd_fill_1
XANTENNA__165__A _165_/A vgnd vpwr scs8hd_diode_2
XFILLER_4_81 vgnd vpwr scs8hd_decap_8
XFILLER_23_232 vgnd vpwr scs8hd_decap_12
XANTENNA_mux_left_track_7.mux_l1_in_0_.TGATE_1_.scs8hd_ebufn_2_A mux_left_track_7.INVTX1_1_.scs8hd_inv_1/Y
+ vgnd vpwr scs8hd_diode_2
XFILLER_23_79 vpwr vgnd scs8hd_fill_2
Xmux_left_track_13.INVTX1_1_.scs8hd_inv_1 left_top_grid_pin_13_ mux_left_track_13.INVTX1_1_.scs8hd_inv_1/Y
+ vgnd vpwr scs8hd_inv_1
XFILLER_14_243 vgnd vpwr scs8hd_fill_1
XFILLER_14_276 vgnd vpwr scs8hd_fill_1
X_187_ _187_/A _187_/Y vgnd vpwr scs8hd_inv_8
Xmux_left_track_9.INVTX1_0_.scs8hd_inv_1 chany_bottom_in[3] mux_left_track_9.INVTX1_0_.scs8hd_inv_1/Y
+ vgnd vpwr scs8hd_inv_1
XFILLER_34_56 vgnd vpwr scs8hd_decap_12
X_110_ _097_/X _098_/X _100_/X _109_/X _112_/B vgnd vpwr scs8hd_or4_4
XFILLER_11_257 vgnd vpwr scs8hd_decap_12
XANTENNA_mux_bottom_track_15.mux_l2_in_0_.TGATE_1_.scs8hd_ebufn_2_TEB _186_/Y vgnd
+ vpwr scs8hd_diode_2
XFILLER_7_217 vgnd vpwr scs8hd_fill_1
XFILLER_7_239 vgnd vpwr scs8hd_decap_4
X_239_ _239_/A chany_bottom_out[4] vgnd vpwr scs8hd_buf_2
XANTENNA__146__C _139_/X vgnd vpwr scs8hd_diode_2
XFILLER_41_3 vgnd vpwr scs8hd_decap_12
XANTENNA__162__B _162_/B vgnd vpwr scs8hd_diode_2
XFILLER_37_110 vgnd vpwr scs8hd_decap_12
XFILLER_1_71 vpwr vgnd scs8hd_fill_2
XFILLER_1_93 vpwr vgnd scs8hd_fill_2
XFILLER_29_34 vgnd vpwr scs8hd_decap_12
XFILLER_28_154 vgnd vpwr scs8hd_decap_12
XFILLER_6_27 vgnd vpwr scs8hd_decap_4
XFILLER_19_165 vpwr vgnd scs8hd_fill_2
XFILLER_19_154 vpwr vgnd scs8hd_fill_2
XFILLER_19_143 vpwr vgnd scs8hd_fill_2
XFILLER_19_132 vpwr vgnd scs8hd_fill_2
XANTENNA__157__B address[2] vgnd vpwr scs8hd_diode_2
XANTENNA_mux_left_track_11.mux_l2_in_0_.TGATE_1_.scs8hd_ebufn_2_A _218_/HI vgnd vpwr
+ scs8hd_diode_2
XANTENNA__173__A _173_/A vgnd vpwr scs8hd_diode_2
XFILLER_25_135 vgnd vpwr scs8hd_decap_12
XANTENNA_mem_left_track_9.LATCH_1_.latch_SLEEPB _158_/Y vgnd vpwr scs8hd_diode_2
XFILLER_40_105 vgnd vpwr scs8hd_decap_12
XFILLER_15_58 vgnd vpwr scs8hd_decap_3
XPHY_130 vgnd vpwr scs8hd_tapvpwrvgnd_1
XPHY_141 vgnd vpwr scs8hd_tapvpwrvgnd_1
XPHY_152 vgnd vpwr scs8hd_tapvpwrvgnd_1
XFILLER_16_102 vpwr vgnd scs8hd_fill_2
XFILLER_16_113 vpwr vgnd scs8hd_fill_2
XPHY_196 vgnd vpwr scs8hd_tapvpwrvgnd_1
XPHY_185 vgnd vpwr scs8hd_tapvpwrvgnd_1
XANTENNA_mux_bottom_track_1.mux_l2_in_0_.TGATE_1_.scs8hd_ebufn_2_TEB _172_/Y vgnd
+ vpwr scs8hd_diode_2
XANTENNA__143__D _109_/A vgnd vpwr scs8hd_diode_2
XANTENNA_mem_left_track_17.LATCH_1_.latch_D data_in vgnd vpwr scs8hd_diode_2
XPHY_163 vgnd vpwr scs8hd_tapvpwrvgnd_1
XPHY_174 vgnd vpwr scs8hd_tapvpwrvgnd_1
XFILLER_21_90 vpwr vgnd scs8hd_fill_2
XANTENNA__168__A _103_/X vgnd vpwr scs8hd_diode_2
XFILLER_22_105 vgnd vpwr scs8hd_decap_12
Xmux_left_track_1.mux_l1_in_0_.TGATE_0_.scs8hd_ebufn_2 mux_left_track_1.INVTX1_0_.scs8hd_inv_1/Y
+ _191_/A mux_left_track_1.mux_l2_in_0_.TGATE_0_.scs8hd_ebufn_2/A vgnd vpwr scs8hd_ebufn_2
XANTENNA_mux_left_track_17.INVTX1_0_.scs8hd_inv_1_A chany_bottom_in[7] vgnd vpwr scs8hd_diode_2
XFILLER_26_35 vgnd vpwr scs8hd_decap_12
XFILLER_42_56 vgnd vpwr scs8hd_decap_6
XFILLER_21_171 vgnd vpwr scs8hd_decap_12
XFILLER_8_186 vpwr vgnd scs8hd_fill_2
XANTENNA__170__B _169_/B vgnd vpwr scs8hd_diode_2
XFILLER_12_193 vpwr vgnd scs8hd_fill_2
XFILLER_27_208 vgnd vpwr scs8hd_decap_12
XANTENNA_mux_bottom_track_17.mux_l2_in_0_.TGATE_0_.scs8hd_ebufn_2_TEB _188_/A vgnd
+ vpwr scs8hd_diode_2
XFILLER_37_34 vgnd vpwr scs8hd_decap_12
XANTENNA_mux_left_track_7.mux_l2_in_0_.TGATE_1_.scs8hd_ebufn_2_TEB _196_/Y vgnd vpwr
+ scs8hd_diode_2
XFILLER_26_263 vgnd vpwr scs8hd_decap_12
XANTENNA__149__C _139_/X vgnd vpwr scs8hd_diode_2
XANTENNA__165__B _165_/B vgnd vpwr scs8hd_diode_2
XANTENNA__181__A _181_/A vgnd vpwr scs8hd_diode_2
XFILLER_4_93 vpwr vgnd scs8hd_fill_2
XFILLER_2_104 vgnd vpwr scs8hd_fill_1
Xmux_left_track_5.mux_l1_in_0_.TGATE_1_.scs8hd_ebufn_2 mux_left_track_5.INVTX1_1_.scs8hd_inv_1/Y
+ _195_/Y mux_left_track_5.mux_l1_in_0_.TGATE_0_.scs8hd_ebufn_2/Z vgnd vpwr scs8hd_ebufn_2
XFILLER_2_148 vgnd vpwr scs8hd_fill_1
X_186_ _186_/A _186_/Y vgnd vpwr scs8hd_inv_8
XANTENNA__176__A _176_/A vgnd vpwr scs8hd_diode_2
Xmem_left_track_11.LATCH_0_.latch data_in _201_/A _162_/Y vgnd vpwr scs8hd_lpflow_inputisolatch_1
XFILLER_34_68 vgnd vpwr scs8hd_decap_12
XFILLER_11_225 vgnd vpwr scs8hd_fill_1
XFILLER_11_236 vgnd vpwr scs8hd_decap_8
XFILLER_11_269 vgnd vpwr scs8hd_decap_8
XFILLER_1_3 vgnd vpwr scs8hd_decap_3
XANTENNA_mux_bottom_track_3.mux_l2_in_0_.TGATE_0_.scs8hd_ebufn_2_TEB _174_/A vgnd
+ vpwr scs8hd_diode_2
Xmux_left_track_11.INVTX1_1_.scs8hd_inv_1 left_top_grid_pin_11_ mux_left_track_11.INVTX1_1_.scs8hd_inv_1/Y
+ vgnd vpwr scs8hd_inv_1
X_238_ _238_/A chany_bottom_out[5] vgnd vpwr scs8hd_buf_2
XANTENNA__146__D _103_/A vgnd vpwr scs8hd_diode_2
X_169_ _103_/X _169_/B _165_/A _169_/Y vgnd vpwr scs8hd_nor3_4
XFILLER_6_273 vpwr vgnd scs8hd_fill_2
XFILLER_1_50 vgnd vpwr scs8hd_decap_4
Xmem_bottom_track_7.LATCH_0_.latch data_in _179_/A _120_/Y vgnd vpwr scs8hd_lpflow_inputisolatch_1
XFILLER_29_46 vgnd vpwr scs8hd_decap_6
XFILLER_28_166 vgnd vpwr scs8hd_decap_12
Xmux_left_track_7.INVTX1_0_.scs8hd_inv_1 chany_bottom_in[2] mux_left_track_7.INVTX1_0_.scs8hd_inv_1/Y
+ vgnd vpwr scs8hd_inv_1
XANTENNA_mux_bottom_track_5.mux_l2_in_0_.TGATE_0_.scs8hd_ebufn_2_A mux_bottom_track_5.mux_l2_in_0_.TGATE_0_.scs8hd_ebufn_2/A
+ vgnd vpwr scs8hd_diode_2
XFILLER_3_276 vgnd vpwr scs8hd_fill_1
XFILLER_3_254 vpwr vgnd scs8hd_fill_2
XFILLER_3_221 vpwr vgnd scs8hd_fill_2
XFILLER_19_90 vpwr vgnd scs8hd_fill_2
XFILLER_42_180 vgnd vpwr scs8hd_decap_6
XANTENNA__157__C _139_/X vgnd vpwr scs8hd_diode_2
XFILLER_40_117 vgnd vpwr scs8hd_decap_12
XFILLER_25_147 vgnd vpwr scs8hd_decap_12
XFILLER_15_37 vpwr vgnd scs8hd_fill_2
XANTENNA_mux_left_track_9.mux_l2_in_0_.TGATE_0_.scs8hd_ebufn_2_TEB _198_/A vgnd vpwr
+ scs8hd_diode_2
XFILLER_0_213 vpwr vgnd scs8hd_fill_2
XANTENNA_mux_bottom_track_1.mux_l1_in_0_.TGATE_0_.scs8hd_ebufn_2_A mux_bottom_track_1.INVTX1_0_.scs8hd_inv_1/Y
+ vgnd vpwr scs8hd_diode_2
XPHY_120 vgnd vpwr scs8hd_tapvpwrvgnd_1
XPHY_131 vgnd vpwr scs8hd_tapvpwrvgnd_1
XPHY_142 vgnd vpwr scs8hd_tapvpwrvgnd_1
XPHY_153 vgnd vpwr scs8hd_tapvpwrvgnd_1
XPHY_164 vgnd vpwr scs8hd_tapvpwrvgnd_1
XPHY_175 vgnd vpwr scs8hd_tapvpwrvgnd_1
XPHY_197 vgnd vpwr scs8hd_tapvpwrvgnd_1
XPHY_186 vgnd vpwr scs8hd_tapvpwrvgnd_1
XPHY_0 vgnd vpwr scs8hd_decap_3
XANTENNA__168__B _169_/B vgnd vpwr scs8hd_diode_2
XFILLER_22_117 vpwr vgnd scs8hd_fill_2
XANTENNA__184__A _184_/A vgnd vpwr scs8hd_diode_2
XFILLER_7_82 vpwr vgnd scs8hd_fill_2
XFILLER_26_47 vgnd vpwr scs8hd_decap_12
XFILLER_13_139 vpwr vgnd scs8hd_fill_2
XFILLER_8_132 vpwr vgnd scs8hd_fill_2
XFILLER_12_161 vgnd vpwr scs8hd_decap_6
XFILLER_16_80 vpwr vgnd scs8hd_fill_2
XANTENNA__170__C _152_/X vgnd vpwr scs8hd_diode_2
XANTENNA__179__A _179_/A vgnd vpwr scs8hd_diode_2
XFILLER_35_220 vgnd vpwr scs8hd_decap_12
XFILLER_12_27 vpwr vgnd scs8hd_fill_2
XFILLER_37_46 vgnd vpwr scs8hd_decap_12
XFILLER_41_245 vgnd vpwr scs8hd_decap_12
XFILLER_5_102 vpwr vgnd scs8hd_fill_2
XFILLER_5_113 vpwr vgnd scs8hd_fill_2
XFILLER_5_157 vpwr vgnd scs8hd_fill_2
XANTENNA_mem_left_track_7.LATCH_1_.latch_D data_in vgnd vpwr scs8hd_diode_2
XANTENNA__149__D _109_/A vgnd vpwr scs8hd_diode_2
XFILLER_17_220 vgnd vpwr scs8hd_decap_12
XANTENNA_mux_left_track_1.mux_l2_in_0_.TGATE_0_.scs8hd_ebufn_2_A mux_left_track_1.mux_l2_in_0_.TGATE_0_.scs8hd_ebufn_2/A
+ vgnd vpwr scs8hd_diode_2
XFILLER_23_245 vgnd vpwr scs8hd_decap_12
XFILLER_2_116 vpwr vgnd scs8hd_fill_2
X_185_ _185_/A _185_/Y vgnd vpwr scs8hd_inv_8
XFILLER_1_160 vpwr vgnd scs8hd_fill_2
XFILLER_29_6 vpwr vgnd scs8hd_fill_2
XFILLER_1_193 vpwr vgnd scs8hd_fill_2
XFILLER_20_215 vgnd vpwr scs8hd_decap_12
XANTENNA__192__A _192_/A vgnd vpwr scs8hd_diode_2
XFILLER_11_204 vgnd vpwr scs8hd_decap_6
Xmux_bottom_track_15.mux_l2_in_0_.TGATE_0_.scs8hd_ebufn_2 mux_bottom_track_15.mux_l1_in_0_.TGATE_1_.scs8hd_ebufn_2/Z
+ _186_/A mux_bottom_track_15.tap_buf4_0_.scs8hd_inv_1/A vgnd vpwr scs8hd_ebufn_2
XFILLER_6_241 vgnd vpwr scs8hd_decap_8
X_237_ _237_/A chany_bottom_out[6] vgnd vpwr scs8hd_buf_2
XFILLER_10_270 vgnd vpwr scs8hd_decap_4
X_168_ _103_/X _169_/B _152_/X _168_/Y vgnd vpwr scs8hd_nor3_4
XFILLER_27_3 vpwr vgnd scs8hd_fill_2
X_099_ address[4] address[5] _130_/C vgnd vpwr scs8hd_or2_4
XFILLER_37_123 vgnd vpwr scs8hd_decap_12
XANTENNA__187__A _187_/A vgnd vpwr scs8hd_diode_2
XFILLER_28_112 vgnd vpwr scs8hd_decap_12
XFILLER_28_178 vgnd vpwr scs8hd_decap_12
XANTENNA__097__A address[3] vgnd vpwr scs8hd_diode_2
XFILLER_6_18 vpwr vgnd scs8hd_fill_2
Xmem_bottom_track_15.LATCH_0_.latch data_in _187_/A _136_/Y vgnd vpwr scs8hd_lpflow_inputisolatch_1
XFILLER_3_266 vpwr vgnd scs8hd_fill_2
XFILLER_3_233 vpwr vgnd scs8hd_fill_2
XFILLER_10_93 vpwr vgnd scs8hd_fill_2
XANTENNA_mux_bottom_track_13.mux_l2_in_0_.TGATE_0_.scs8hd_ebufn_2_A mux_bottom_track_13.mux_l1_in_0_.TGATE_1_.scs8hd_ebufn_2/Z
+ vgnd vpwr scs8hd_diode_2
XANTENNA__157__D _109_/A vgnd vpwr scs8hd_diode_2
XFILLER_40_129 vgnd vpwr scs8hd_decap_12
XFILLER_25_159 vgnd vpwr scs8hd_decap_12
XFILLER_15_16 vpwr vgnd scs8hd_fill_2
XFILLER_0_269 vgnd vpwr scs8hd_decap_8
XFILLER_0_258 vgnd vpwr scs8hd_decap_8
XPHY_198 vgnd vpwr scs8hd_tapvpwrvgnd_1
XPHY_187 vgnd vpwr scs8hd_tapvpwrvgnd_1
XPHY_110 vgnd vpwr scs8hd_tapvpwrvgnd_1
XPHY_121 vgnd vpwr scs8hd_tapvpwrvgnd_1
XPHY_132 vgnd vpwr scs8hd_tapvpwrvgnd_1
XPHY_143 vgnd vpwr scs8hd_tapvpwrvgnd_1
XPHY_154 vgnd vpwr scs8hd_tapvpwrvgnd_1
XPHY_165 vgnd vpwr scs8hd_tapvpwrvgnd_1
XPHY_176 vgnd vpwr scs8hd_tapvpwrvgnd_1
Xmux_left_track_5.INVTX1_0_.scs8hd_inv_1 chany_bottom_in[1] mux_left_track_5.INVTX1_0_.scs8hd_inv_1/Y
+ vgnd vpwr scs8hd_inv_1
XPHY_1 vgnd vpwr scs8hd_decap_3
XANTENNA__168__C _152_/X vgnd vpwr scs8hd_diode_2
XFILLER_38_251 vgnd vpwr scs8hd_decap_12
Xmux_bottom_track_17.INVTX1_1_.scs8hd_inv_1 chanx_left_in[0] mux_bottom_track_17.INVTX1_1_.scs8hd_inv_1/Y
+ vgnd vpwr scs8hd_inv_1
XFILLER_26_59 vgnd vpwr scs8hd_decap_12
XFILLER_13_118 vpwr vgnd scs8hd_fill_2
XFILLER_21_184 vgnd vpwr scs8hd_decap_12
XANTENNA_mem_bottom_track_5.LATCH_1_.latch_D data_in vgnd vpwr scs8hd_diode_2
XFILLER_32_80 vgnd vpwr scs8hd_decap_12
XFILLER_8_111 vgnd vpwr scs8hd_fill_1
XFILLER_12_151 vpwr vgnd scs8hd_fill_2
XFILLER_35_232 vgnd vpwr scs8hd_decap_12
XANTENNA__195__A _195_/A vgnd vpwr scs8hd_diode_2
Xmux_left_track_1.mux_l2_in_0_.TGATE_1_.scs8hd_ebufn_2 _217_/HI _190_/Y mux_left_track_1.tap_buf4_0_.scs8hd_inv_1/A
+ vgnd vpwr scs8hd_ebufn_2
XFILLER_37_58 vgnd vpwr scs8hd_decap_3
XFILLER_26_276 vgnd vpwr scs8hd_fill_1
XFILLER_41_257 vgnd vpwr scs8hd_decap_12
XFILLER_5_136 vpwr vgnd scs8hd_fill_2
Xmux_bottom_track_5.tap_buf4_0_.scs8hd_inv_1 mux_bottom_track_5.tap_buf4_0_.scs8hd_inv_1/A
+ _241_/A vgnd vpwr scs8hd_inv_1
XFILLER_32_202 vgnd vpwr scs8hd_decap_12
XFILLER_17_232 vgnd vpwr scs8hd_decap_12
XFILLER_4_51 vgnd vpwr scs8hd_decap_4
XANTENNA_mux_left_track_15.mux_l1_in_0_.TGATE_0_.scs8hd_ebufn_2_A mux_left_track_15.INVTX1_0_.scs8hd_inv_1/Y
+ vgnd vpwr scs8hd_diode_2
XFILLER_23_257 vgnd vpwr scs8hd_decap_12
XFILLER_23_16 vgnd vpwr scs8hd_decap_6
XFILLER_2_128 vgnd vpwr scs8hd_decap_3
XFILLER_14_213 vgnd vpwr scs8hd_fill_1
XFILLER_13_60 vgnd vpwr scs8hd_fill_1
XFILLER_13_93 vpwr vgnd scs8hd_fill_2
X_184_ _184_/A _184_/Y vgnd vpwr scs8hd_inv_8