* NGSPICE file created from sb_3__0_.ext - technology: EFS8A

* Black-box entry subcircuit for scs8hd_decap_8 abstract view
.subckt scs8hd_decap_8 vgnd vpwr
.ends

* Black-box entry subcircuit for scs8hd_diode_2 abstract view
.subckt scs8hd_diode_2 DIODE vgnd vpwr
.ends

* Black-box entry subcircuit for scs8hd_fill_2 abstract view
.subckt scs8hd_fill_2 vpwr vgnd
.ends

* Black-box entry subcircuit for scs8hd_inv_1 abstract view
.subckt scs8hd_inv_1 A Y vgnd vpwr
.ends

* Black-box entry subcircuit for scs8hd_decap_6 abstract view
.subckt scs8hd_decap_6 vgnd vpwr
.ends

* Black-box entry subcircuit for scs8hd_decap_12 abstract view
.subckt scs8hd_decap_12 vgnd vpwr
.ends

* Black-box entry subcircuit for scs8hd_ebufn_2 abstract view
.subckt scs8hd_ebufn_2 A TEB Z vgnd vpwr
.ends

* Black-box entry subcircuit for scs8hd_inv_8 abstract view
.subckt scs8hd_inv_8 A Y vgnd vpwr
.ends

* Black-box entry subcircuit for scs8hd_nor2_4 abstract view
.subckt scs8hd_nor2_4 A B Y vgnd vpwr
.ends

* Black-box entry subcircuit for scs8hd_buf_1 abstract view
.subckt scs8hd_buf_1 A X vgnd vpwr
.ends

* Black-box entry subcircuit for scs8hd_decap_4 abstract view
.subckt scs8hd_decap_4 vgnd vpwr
.ends

* Black-box entry subcircuit for scs8hd_fill_1 abstract view
.subckt scs8hd_fill_1 vgnd vpwr
.ends

* Black-box entry subcircuit for scs8hd_decap_3 abstract view
.subckt scs8hd_decap_3 vgnd vpwr
.ends

* Black-box entry subcircuit for scs8hd_tapvpwrvgnd_1 abstract view
.subckt scs8hd_tapvpwrvgnd_1 vgnd vpwr
.ends

* Black-box entry subcircuit for scs8hd_lpflow_inputisolatch_1 abstract view
.subckt scs8hd_lpflow_inputisolatch_1 D Q SLEEPB vgnd vpwr
.ends

* Black-box entry subcircuit for scs8hd_or4_4 abstract view
.subckt scs8hd_or4_4 A B C D X vgnd vpwr
.ends

* Black-box entry subcircuit for scs8hd_buf_2 abstract view
.subckt scs8hd_buf_2 A X vgnd vpwr
.ends

* Black-box entry subcircuit for scs8hd_nor3_4 abstract view
.subckt scs8hd_nor3_4 A B C Y vgnd vpwr
.ends

* Black-box entry subcircuit for scs8hd_or2_4 abstract view
.subckt scs8hd_or2_4 A B X vgnd vpwr
.ends

* Black-box entry subcircuit for scs8hd_conb_1 abstract view
.subckt scs8hd_conb_1 HI LO vgnd vpwr
.ends

* Black-box entry subcircuit for scs8hd_nand2_4 abstract view
.subckt scs8hd_nand2_4 A B Y vgnd vpwr
.ends

.subckt sb_3__0_ address[0] address[1] address[2] address[3] address[4] address[5]
+ chanx_left_in[0] chanx_left_in[1] chanx_left_in[2] chanx_left_in[3] chanx_left_in[4]
+ chanx_left_in[5] chanx_left_in[6] chanx_left_in[7] chanx_left_in[8] chanx_left_out[0]
+ chanx_left_out[1] chanx_left_out[2] chanx_left_out[3] chanx_left_out[4] chanx_left_out[5]
+ chanx_left_out[6] chanx_left_out[7] chanx_left_out[8] chany_top_in[0] chany_top_in[1]
+ chany_top_in[2] chany_top_in[3] chany_top_in[4] chany_top_in[5] chany_top_in[6]
+ chany_top_in[7] chany_top_in[8] chany_top_out[0] chany_top_out[1] chany_top_out[2]
+ chany_top_out[3] chany_top_out[4] chany_top_out[5] chany_top_out[6] chany_top_out[7]
+ chany_top_out[8] data_in enable left_bottom_grid_pin_11_ left_bottom_grid_pin_13_
+ left_bottom_grid_pin_15_ left_bottom_grid_pin_1_ left_bottom_grid_pin_3_ left_bottom_grid_pin_5_
+ left_bottom_grid_pin_7_ left_bottom_grid_pin_9_ left_top_grid_pin_10_ top_left_grid_pin_13_
+ top_right_grid_pin_11_ top_right_grid_pin_13_ top_right_grid_pin_15_ top_right_grid_pin_1_
+ top_right_grid_pin_3_ top_right_grid_pin_5_ top_right_grid_pin_7_ top_right_grid_pin_9_
+ vpwr vgnd
XFILLER_39_266 vgnd vpwr scs8hd_decap_8
XANTENNA_mem_top_track_2.LATCH_1_.latch_SLEEPB _111_/Y vgnd vpwr scs8hd_diode_2
XFILLER_26_41 vpwr vgnd scs8hd_fill_2
XFILLER_13_166 vpwr vgnd scs8hd_fill_2
Xmux_top_track_8.INVTX1_0_.scs8hd_inv_1 top_right_grid_pin_7_ mux_top_track_8.INVTX1_0_.scs8hd_inv_1/Y
+ vgnd vpwr scs8hd_inv_1
XFILLER_27_269 vgnd vpwr scs8hd_decap_8
XANTENNA_mux_left_track_9.mux_l2_in_0_.TGATE_1_.scs8hd_ebufn_2_A _216_/HI vgnd vpwr
+ scs8hd_diode_2
XFILLER_10_103 vpwr vgnd scs8hd_fill_2
XFILLER_10_147 vgnd vpwr scs8hd_decap_6
XFILLER_12_32 vpwr vgnd scs8hd_fill_2
XFILLER_12_54 vpwr vgnd scs8hd_fill_2
XANTENNA_mem_top_track_16.LATCH_0_.latch_SLEEPB _142_/Y vgnd vpwr scs8hd_diode_2
XFILLER_18_203 vgnd vpwr scs8hd_decap_8
XANTENNA__108__B enable vgnd vpwr scs8hd_diode_2
XANTENNA__124__A _105_/A vgnd vpwr scs8hd_diode_2
XFILLER_5_184 vgnd vpwr scs8hd_decap_12
XFILLER_24_239 vgnd vpwr scs8hd_decap_12
XANTENNA_mux_left_track_5.mux_l1_in_0_.TGATE_1_.scs8hd_ebufn_2_A mux_left_track_5.INVTX1_1_.scs8hd_inv_1/Y
+ vgnd vpwr scs8hd_diode_2
Xmux_left_track_1.mux_l2_in_0_.TGATE_0_.scs8hd_ebufn_2 mux_left_track_1.mux_l1_in_0_.TGATE_0_.scs8hd_ebufn_2/Z
+ _190_/A mux_left_track_1.tap_buf4_0_.scs8hd_inv_1/A vgnd vpwr scs8hd_ebufn_2
X_200_ _200_/A _200_/Y vgnd vpwr scs8hd_inv_8
XANTENNA_mux_left_track_3.INVTX1_1_.scs8hd_inv_1_A left_bottom_grid_pin_1_ vgnd vpwr
+ scs8hd_diode_2
X_131_ _150_/A _130_/X _131_/Y vgnd vpwr scs8hd_nor2_4
XFILLER_23_53 vpwr vgnd scs8hd_fill_2
XFILLER_23_97 vpwr vgnd scs8hd_fill_2
XFILLER_2_154 vgnd vpwr scs8hd_decap_12
XANTENNA__110__C _123_/C vgnd vpwr scs8hd_diode_2
XFILLER_9_22 vgnd vpwr scs8hd_decap_8
XFILLER_9_33 vpwr vgnd scs8hd_fill_2
XFILLER_9_44 vpwr vgnd scs8hd_fill_2
XANTENNA__119__A _105_/A vgnd vpwr scs8hd_diode_2
XANTENNA_mem_top_track_16.LATCH_1_.latch_D data_in vgnd vpwr scs8hd_diode_2
XFILLER_18_86 vpwr vgnd scs8hd_fill_2
XFILLER_34_96 vgnd vpwr scs8hd_decap_12
XFILLER_11_220 vgnd vpwr scs8hd_decap_12
XFILLER_11_275 vpwr vgnd scs8hd_fill_2
XFILLER_7_257 vgnd vpwr scs8hd_decap_12
X_114_ _160_/B _149_/B vgnd vpwr scs8hd_buf_1
XANTENNA_mux_left_track_15.mux_l2_in_0_.TGATE_1_.scs8hd_ebufn_2_TEB _204_/Y vgnd vpwr
+ scs8hd_diode_2
Xmux_top_track_0.mux_l2_in_0_.TGATE_1_.scs8hd_ebufn_2 _217_/HI _172_/Y mux_top_track_0.tap_buf4_0_.scs8hd_inv_1/A
+ vgnd vpwr scs8hd_ebufn_2
XANTENNA_mem_top_track_6.LATCH_1_.latch_D data_in vgnd vpwr scs8hd_diode_2
XFILLER_37_161 vgnd vpwr scs8hd_decap_12
XFILLER_29_106 vpwr vgnd scs8hd_fill_2
XFILLER_4_227 vgnd vpwr scs8hd_decap_12
XFILLER_20_10 vpwr vgnd scs8hd_fill_2
XFILLER_20_32 vgnd vpwr scs8hd_decap_4
Xmux_left_track_5.mux_l2_in_0_.TGATE_1_.scs8hd_ebufn_2 _214_/HI _194_/Y mux_left_track_5.tap_buf4_0_.scs8hd_inv_1/A
+ vgnd vpwr scs8hd_ebufn_2
XFILLER_35_109 vgnd vpwr scs8hd_decap_12
XANTENNA_mem_left_track_11.LATCH_0_.latch_D data_in vgnd vpwr scs8hd_diode_2
XANTENNA__116__B _117_/B vgnd vpwr scs8hd_diode_2
XANTENNA_mem_top_track_14.LATCH_1_.latch_SLEEPB _135_/Y vgnd vpwr scs8hd_diode_2
XFILLER_6_78 vpwr vgnd scs8hd_fill_2
XFILLER_6_56 vgnd vpwr scs8hd_decap_12
XANTENNA__132__A address[0] vgnd vpwr scs8hd_diode_2
XFILLER_26_109 vgnd vpwr scs8hd_decap_8
XFILLER_1_208 vgnd vpwr scs8hd_decap_12
XFILLER_40_178 vgnd vpwr scs8hd_decap_12
XFILLER_40_112 vgnd vpwr scs8hd_fill_1
XFILLER_15_43 vgnd vpwr scs8hd_fill_1
XFILLER_0_230 vgnd vpwr scs8hd_decap_12
XFILLER_0_274 vgnd vpwr scs8hd_decap_3
XANTENNA__127__A _105_/A vgnd vpwr scs8hd_diode_2
XFILLER_16_120 vpwr vgnd scs8hd_fill_2
XFILLER_16_186 vgnd vpwr scs8hd_decap_12
XPHY_170 vgnd vpwr scs8hd_tapvpwrvgnd_1
XPHY_181 vgnd vpwr scs8hd_tapvpwrvgnd_1
XPHY_192 vgnd vpwr scs8hd_tapvpwrvgnd_1
XFILLER_39_245 vpwr vgnd scs8hd_fill_2
XFILLER_22_112 vgnd vpwr scs8hd_decap_4
XFILLER_22_145 vgnd vpwr scs8hd_decap_8
Xmem_top_track_4.LATCH_0_.latch data_in _177_/A _117_/Y vgnd vpwr scs8hd_lpflow_inputisolatch_1
XFILLER_13_134 vpwr vgnd scs8hd_fill_2
XFILLER_13_145 vpwr vgnd scs8hd_fill_2
XFILLER_42_63 vgnd vpwr scs8hd_decap_12
XFILLER_9_138 vpwr vgnd scs8hd_fill_2
XFILLER_36_215 vgnd vpwr scs8hd_decap_12
XFILLER_42_218 vgnd vpwr scs8hd_decap_12
XFILLER_12_88 vpwr vgnd scs8hd_fill_2
XANTENNA__230__A _230_/A vgnd vpwr scs8hd_diode_2
XFILLER_37_96 vpwr vgnd scs8hd_fill_2
XFILLER_37_41 vgnd vpwr scs8hd_decap_8
Xmux_left_track_13.tap_buf4_0_.scs8hd_inv_1 mux_left_track_13.tap_buf4_0_.scs8hd_inv_1/A
+ _228_/A vgnd vpwr scs8hd_inv_1
XFILLER_18_215 vgnd vpwr scs8hd_decap_12
XANTENNA_mux_left_track_17.mux_l2_in_0_.TGATE_0_.scs8hd_ebufn_2_TEB _206_/A vgnd vpwr
+ scs8hd_diode_2
XANTENNA__124__B _125_/B vgnd vpwr scs8hd_diode_2
XFILLER_5_196 vgnd vpwr scs8hd_decap_12
XANTENNA__140__A _104_/A vgnd vpwr scs8hd_diode_2
XANTENNA_mux_top_track_0.INVTX1_0_.scs8hd_inv_1_A top_left_grid_pin_13_ vgnd vpwr
+ scs8hd_diode_2
XFILLER_32_251 vgnd vpwr scs8hd_decap_12
Xmux_top_track_6.INVTX1_0_.scs8hd_inv_1 top_right_grid_pin_5_ mux_top_track_6.INVTX1_0_.scs8hd_inv_1/Y
+ vgnd vpwr scs8hd_inv_1
XANTENNA_mux_left_track_9.INVTX1_0_.scs8hd_inv_1_A chany_top_in[5] vgnd vpwr scs8hd_diode_2
XANTENNA_mux_top_track_4.INVTX1_1_.scs8hd_inv_1_A chanx_left_in[7] vgnd vpwr scs8hd_diode_2
X_130_ _123_/A _149_/B _100_/A _123_/D _130_/X vgnd vpwr scs8hd_or4_4
XFILLER_23_32 vpwr vgnd scs8hd_fill_2
XFILLER_23_262 vgnd vpwr scs8hd_decap_12
XFILLER_2_166 vgnd vpwr scs8hd_decap_12
XANTENNA__110__D _109_/X vgnd vpwr scs8hd_diode_2
XANTENNA_mux_left_track_5.tap_buf4_0_.scs8hd_inv_1_A mux_left_track_5.tap_buf4_0_.scs8hd_inv_1/A
+ vgnd vpwr scs8hd_diode_2
XANTENNA__119__B _119_/B vgnd vpwr scs8hd_diode_2
XANTENNA__135__A _150_/A vgnd vpwr scs8hd_diode_2
XFILLER_9_78 vpwr vgnd scs8hd_fill_2
XFILLER_20_276 vgnd vpwr scs8hd_fill_1
Xmux_left_track_5.tap_buf4_0_.scs8hd_inv_1 mux_left_track_5.tap_buf4_0_.scs8hd_inv_1/A
+ _232_/A vgnd vpwr scs8hd_inv_1
XFILLER_18_10 vpwr vgnd scs8hd_fill_2
XFILLER_34_53 vgnd vpwr scs8hd_decap_12
XFILLER_11_232 vgnd vpwr scs8hd_decap_12
X_113_ address[2] _160_/B vgnd vpwr scs8hd_inv_8
XANTENNA_mux_left_track_7.mux_l1_in_0_.TGATE_1_.scs8hd_ebufn_2_TEB _197_/Y vgnd vpwr
+ scs8hd_diode_2
XANTENNA_mem_left_track_1.LATCH_0_.latch_SLEEPB _145_/Y vgnd vpwr scs8hd_diode_2
XFILLER_7_269 vgnd vpwr scs8hd_decap_8
XFILLER_15_7 vgnd vpwr scs8hd_fill_1
Xmux_top_track_6.tap_buf4_0_.scs8hd_inv_1 mux_top_track_6.tap_buf4_0_.scs8hd_inv_1/A
+ _240_/A vgnd vpwr scs8hd_inv_1
XFILLER_29_118 vpwr vgnd scs8hd_fill_2
XFILLER_37_184 vgnd vpwr scs8hd_decap_12
XFILLER_37_173 vgnd vpwr scs8hd_decap_8
XFILLER_4_239 vgnd vpwr scs8hd_decap_6
XFILLER_4_206 vgnd vpwr scs8hd_decap_8
XFILLER_20_55 vgnd vpwr scs8hd_decap_4
XFILLER_29_53 vgnd vpwr scs8hd_decap_6
XFILLER_28_151 vpwr vgnd scs8hd_fill_2
XFILLER_6_68 vgnd vpwr scs8hd_fill_1
Xmux_left_track_3.mux_l1_in_0_.TGATE_0_.scs8hd_ebufn_2 mux_left_track_3.INVTX1_0_.scs8hd_inv_1/Y
+ _193_/A mux_left_track_3.mux_l1_in_0_.TGATE_1_.scs8hd_ebufn_2/Z vgnd vpwr scs8hd_ebufn_2
XFILLER_19_151 vgnd vpwr scs8hd_decap_3
XFILLER_19_162 vgnd vpwr scs8hd_decap_12
XFILLER_19_184 vgnd vpwr scs8hd_decap_12
XFILLER_34_154 vgnd vpwr scs8hd_decap_12
Xmem_left_track_5.LATCH_1_.latch data_in _194_/A _150_/Y vgnd vpwr scs8hd_lpflow_inputisolatch_1
XANTENNA_mux_top_track_16.mux_l1_in_0_.TGATE_1_.scs8hd_ebufn_2_TEB _189_/Y vgnd vpwr
+ scs8hd_diode_2
XFILLER_25_132 vgnd vpwr scs8hd_decap_12
XFILLER_31_43 vpwr vgnd scs8hd_fill_2
XFILLER_0_242 vgnd vpwr scs8hd_decap_6
XANTENNA__233__A _233_/A vgnd vpwr scs8hd_diode_2
Xmux_left_track_17.INVTX1_1_.scs8hd_inv_1 left_bottom_grid_pin_15_ mux_left_track_17.INVTX1_1_.scs8hd_inv_1/Y
+ vgnd vpwr scs8hd_inv_1
XANTENNA__127__B _127_/B vgnd vpwr scs8hd_diode_2
XPHY_160 vgnd vpwr scs8hd_tapvpwrvgnd_1
XFILLER_16_143 vgnd vpwr scs8hd_fill_1
XFILLER_16_198 vgnd vpwr scs8hd_decap_12
XPHY_171 vgnd vpwr scs8hd_tapvpwrvgnd_1
XPHY_182 vgnd vpwr scs8hd_tapvpwrvgnd_1
XPHY_193 vgnd vpwr scs8hd_tapvpwrvgnd_1
XANTENNA__143__A _104_/A vgnd vpwr scs8hd_diode_2
XFILLER_39_224 vgnd vpwr scs8hd_fill_1
XFILLER_30_190 vgnd vpwr scs8hd_decap_12
XFILLER_22_157 vgnd vpwr scs8hd_decap_12
Xmux_top_track_2.mux_l1_in_0_.TGATE_1_.scs8hd_ebufn_2 mux_top_track_2.INVTX1_1_.scs8hd_inv_1/Y
+ _175_/Y mux_top_track_2.mux_l1_in_0_.TGATE_0_.scs8hd_ebufn_2/Z vgnd vpwr scs8hd_ebufn_2
XFILLER_26_10 vpwr vgnd scs8hd_fill_2
XFILLER_26_98 vpwr vgnd scs8hd_fill_2
XANTENNA_mem_left_track_1.LATCH_0_.latch_D data_in vgnd vpwr scs8hd_diode_2
XFILLER_13_113 vpwr vgnd scs8hd_fill_2
XANTENNA__228__A _228_/A vgnd vpwr scs8hd_diode_2
XFILLER_42_75 vgnd vpwr scs8hd_decap_12
XFILLER_36_227 vgnd vpwr scs8hd_decap_12
XANTENNA__138__A address[4] vgnd vpwr scs8hd_diode_2
Xmux_left_track_7.mux_l1_in_0_.TGATE_1_.scs8hd_ebufn_2 mux_left_track_7.INVTX1_1_.scs8hd_inv_1/Y
+ _197_/Y mux_left_track_7.mux_l1_in_0_.TGATE_1_.scs8hd_ebufn_2/Z vgnd vpwr scs8hd_ebufn_2
XFILLER_10_127 vgnd vpwr scs8hd_decap_3
XFILLER_12_12 vgnd vpwr scs8hd_decap_4
XFILLER_12_23 vpwr vgnd scs8hd_fill_2
XFILLER_12_67 vpwr vgnd scs8hd_fill_2
XANTENNA_mux_left_track_9.mux_l1_in_0_.TGATE_0_.scs8hd_ebufn_2_TEB _199_/A vgnd vpwr
+ scs8hd_diode_2
XFILLER_37_75 vgnd vpwr scs8hd_decap_6
XFILLER_37_53 vpwr vgnd scs8hd_fill_2
XFILLER_33_208 vgnd vpwr scs8hd_decap_12
XFILLER_18_227 vgnd vpwr scs8hd_decap_12
XFILLER_5_164 vgnd vpwr scs8hd_decap_12
XFILLER_5_131 vgnd vpwr scs8hd_decap_3
XANTENNA__140__B _123_/B vgnd vpwr scs8hd_diode_2
XFILLER_32_263 vgnd vpwr scs8hd_decap_12
XFILLER_15_208 vgnd vpwr scs8hd_decap_12
XFILLER_23_11 vgnd vpwr scs8hd_decap_3
XFILLER_23_274 vgnd vpwr scs8hd_decap_3
XFILLER_3_3 vgnd vpwr scs8hd_decap_12
XFILLER_2_134 vpwr vgnd scs8hd_fill_2
XANTENNA__241__A _241_/A vgnd vpwr scs8hd_diode_2
XFILLER_2_178 vgnd vpwr scs8hd_decap_12
XFILLER_0_15 vgnd vpwr scs8hd_decap_12
XFILLER_9_13 vpwr vgnd scs8hd_fill_2
X_189_ _189_/A _189_/Y vgnd vpwr scs8hd_inv_8
XANTENNA__135__B _135_/B vgnd vpwr scs8hd_diode_2
XANTENNA__151__A _136_/A vgnd vpwr scs8hd_diode_2
XANTENNA_mux_top_track_2.mux_l1_in_0_.TGATE_1_.scs8hd_ebufn_2_TEB _175_/Y vgnd vpwr
+ scs8hd_diode_2
XFILLER_34_43 vgnd vpwr scs8hd_fill_1
XANTENNA__236__A _236_/A vgnd vpwr scs8hd_diode_2
XFILLER_34_76 vgnd vpwr scs8hd_decap_12
XFILLER_34_65 vpwr vgnd scs8hd_fill_2
X_112_ _125_/A _112_/B _112_/Y vgnd vpwr scs8hd_nor2_4
Xmux_top_track_4.INVTX1_0_.scs8hd_inv_1 top_right_grid_pin_3_ mux_top_track_4.INVTX1_0_.scs8hd_inv_1/Y
+ vgnd vpwr scs8hd_inv_1
XFILLER_38_119 vgnd vpwr scs8hd_decap_12
XANTENNA__146__A address[3] vgnd vpwr scs8hd_diode_2
XFILLER_37_196 vgnd vpwr scs8hd_decap_12
XFILLER_20_23 vpwr vgnd scs8hd_fill_2
XFILLER_20_78 vpwr vgnd scs8hd_fill_2
XFILLER_29_76 vpwr vgnd scs8hd_fill_2
XFILLER_29_32 vgnd vpwr scs8hd_decap_4
XFILLER_3_262 vgnd vpwr scs8hd_decap_12
XFILLER_20_6 vpwr vgnd scs8hd_fill_2
XFILLER_34_166 vgnd vpwr scs8hd_decap_12
XFILLER_19_174 vgnd vpwr scs8hd_decap_8
XFILLER_19_196 vgnd vpwr scs8hd_decap_12
XFILLER_25_144 vgnd vpwr scs8hd_decap_12
XFILLER_15_23 vpwr vgnd scs8hd_fill_2
XFILLER_31_66 vgnd vpwr scs8hd_fill_1
XFILLER_31_11 vgnd vpwr scs8hd_decap_4
XFILLER_31_136 vgnd vpwr scs8hd_decap_12
XFILLER_31_114 vpwr vgnd scs8hd_fill_2
XFILLER_31_103 vpwr vgnd scs8hd_fill_2
XPHY_150 vgnd vpwr scs8hd_tapvpwrvgnd_1
XPHY_161 vgnd vpwr scs8hd_tapvpwrvgnd_1
XPHY_172 vgnd vpwr scs8hd_tapvpwrvgnd_1
XPHY_183 vgnd vpwr scs8hd_tapvpwrvgnd_1
XPHY_194 vgnd vpwr scs8hd_tapvpwrvgnd_1
XANTENNA__143__B _123_/B vgnd vpwr scs8hd_diode_2
XFILLER_39_258 vpwr vgnd scs8hd_fill_2
XANTENNA_mux_top_track_12.mux_l2_in_0_.TGATE_0_.scs8hd_ebufn_2_A mux_top_track_12.mux_l2_in_0_.TGATE_0_.scs8hd_ebufn_2/A
+ vgnd vpwr scs8hd_diode_2
XFILLER_22_169 vgnd vpwr scs8hd_decap_12
XFILLER_42_87 vgnd vpwr scs8hd_decap_6
XFILLER_42_32 vgnd vpwr scs8hd_decap_12
XFILLER_9_118 vpwr vgnd scs8hd_fill_2
XFILLER_21_180 vgnd vpwr scs8hd_decap_3
XFILLER_3_59 vpwr vgnd scs8hd_fill_2
XFILLER_3_15 vgnd vpwr scs8hd_decap_12
XFILLER_36_239 vgnd vpwr scs8hd_decap_12
XANTENNA__138__B _138_/B vgnd vpwr scs8hd_diode_2
XANTENNA__154__A _170_/C vgnd vpwr scs8hd_diode_2
XANTENNA_mux_top_track_4.mux_l1_in_0_.TGATE_0_.scs8hd_ebufn_2_TEB _177_/A vgnd vpwr
+ scs8hd_diode_2
XANTENNA_mux_left_track_17.mux_l2_in_0_.TGATE_0_.scs8hd_ebufn_2_A mux_left_track_17.mux_l1_in_0_.TGATE_1_.scs8hd_ebufn_2/Z
+ vgnd vpwr scs8hd_diode_2
Xmux_left_track_15.INVTX1_1_.scs8hd_inv_1 left_bottom_grid_pin_13_ mux_left_track_15.INVTX1_1_.scs8hd_inv_1/Y
+ vgnd vpwr scs8hd_inv_1
XFILLER_10_139 vpwr vgnd scs8hd_fill_2
XFILLER_41_220 vgnd vpwr scs8hd_decap_12
XANTENNA__239__A _239_/A vgnd vpwr scs8hd_diode_2
XANTENNA_mux_top_track_8.mux_l2_in_0_.TGATE_1_.scs8hd_ebufn_2_A _225_/HI vgnd vpwr
+ scs8hd_diode_2
XFILLER_18_239 vgnd vpwr scs8hd_decap_12
XFILLER_38_7 vgnd vpwr scs8hd_decap_12
Xmem_top_track_0.LATCH_0_.latch data_in _173_/A _107_/Y vgnd vpwr scs8hd_lpflow_inputisolatch_1
XFILLER_5_176 vgnd vpwr scs8hd_decap_6
XANTENNA__140__C _157_/C vgnd vpwr scs8hd_diode_2
Xmem_left_track_15.LATCH_0_.latch data_in _205_/A _169_/Y vgnd vpwr scs8hd_lpflow_inputisolatch_1
XANTENNA__149__A address[3] vgnd vpwr scs8hd_diode_2
XANTENNA_mux_left_track_13.mux_l1_in_0_.TGATE_0_.scs8hd_ebufn_2_A mux_left_track_13.INVTX1_0_.scs8hd_inv_1/Y
+ vgnd vpwr scs8hd_diode_2
XANTENNA_mem_left_track_13.LATCH_0_.latch_SLEEPB _165_/Y vgnd vpwr scs8hd_diode_2
XFILLER_23_78 vpwr vgnd scs8hd_fill_2
XFILLER_23_253 vpwr vgnd scs8hd_fill_2
XANTENNA_mux_top_track_4.mux_l1_in_0_.TGATE_1_.scs8hd_ebufn_2_A mux_top_track_4.INVTX1_1_.scs8hd_inv_1/Y
+ vgnd vpwr scs8hd_diode_2
XFILLER_0_27 vgnd vpwr scs8hd_decap_4
XFILLER_9_58 vgnd vpwr scs8hd_fill_1
X_188_ _188_/A _188_/Y vgnd vpwr scs8hd_inv_8
XFILLER_29_3 vpwr vgnd scs8hd_fill_2
XANTENNA__151__B _150_/B vgnd vpwr scs8hd_diode_2
XFILLER_18_23 vpwr vgnd scs8hd_fill_2
XFILLER_18_45 vpwr vgnd scs8hd_fill_2
XFILLER_34_88 vgnd vpwr scs8hd_decap_4
X_111_ _105_/A _112_/B _111_/Y vgnd vpwr scs8hd_nor2_4
XFILLER_11_245 vgnd vpwr scs8hd_decap_4
XANTENNA__146__B _149_/B vgnd vpwr scs8hd_diode_2
XANTENNA__162__A _165_/A vgnd vpwr scs8hd_diode_2
XFILLER_37_153 vgnd vpwr scs8hd_fill_1
XFILLER_6_15 vgnd vpwr scs8hd_decap_12
XFILLER_3_274 vgnd vpwr scs8hd_decap_3
XFILLER_34_178 vgnd vpwr scs8hd_decap_12
XANTENNA__157__A _123_/A vgnd vpwr scs8hd_diode_2
Xmux_top_track_2.INVTX1_0_.scs8hd_inv_1 top_right_grid_pin_1_ mux_top_track_2.INVTX1_0_.scs8hd_inv_1/Y
+ vgnd vpwr scs8hd_inv_1
XFILLER_25_156 vgnd vpwr scs8hd_decap_12
XFILLER_15_57 vpwr vgnd scs8hd_fill_2
XFILLER_15_79 vpwr vgnd scs8hd_fill_2
XFILLER_31_56 vpwr vgnd scs8hd_fill_2
XFILLER_0_200 vgnd vpwr scs8hd_decap_4
XFILLER_31_148 vgnd vpwr scs8hd_decap_12
XANTENNA_mem_left_track_11.LATCH_1_.latch_SLEEPB _161_/Y vgnd vpwr scs8hd_diode_2
XPHY_140 vgnd vpwr scs8hd_tapvpwrvgnd_1
XPHY_151 vgnd vpwr scs8hd_tapvpwrvgnd_1
XPHY_162 vgnd vpwr scs8hd_tapvpwrvgnd_1
XPHY_173 vgnd vpwr scs8hd_tapvpwrvgnd_1
XPHY_184 vgnd vpwr scs8hd_tapvpwrvgnd_1
XPHY_195 vgnd vpwr scs8hd_tapvpwrvgnd_1
XANTENNA__143__C _157_/C vgnd vpwr scs8hd_diode_2
XFILLER_11_3 vpwr vgnd scs8hd_fill_2
Xmux_left_track_3.mux_l2_in_0_.TGATE_1_.scs8hd_ebufn_2 _213_/HI _192_/Y mux_left_track_3.tap_buf4_0_.scs8hd_inv_1/A
+ vgnd vpwr scs8hd_ebufn_2
XFILLER_22_104 vpwr vgnd scs8hd_fill_2
XFILLER_7_91 vpwr vgnd scs8hd_fill_2
XANTENNA_mux_left_track_17.mux_l1_in_0_.TGATE_1_.scs8hd_ebufn_2_TEB _207_/Y vgnd vpwr
+ scs8hd_diode_2
Xmem_left_track_1.LATCH_1_.latch data_in _190_/A _144_/Y vgnd vpwr scs8hd_lpflow_inputisolatch_1
XANTENNA_mux_left_track_11.INVTX1_1_.scs8hd_inv_1_A left_bottom_grid_pin_9_ vgnd vpwr
+ scs8hd_diode_2
XFILLER_26_45 vgnd vpwr scs8hd_decap_6
XFILLER_26_23 vpwr vgnd scs8hd_fill_2
XFILLER_42_44 vgnd vpwr scs8hd_decap_12
XFILLER_3_27 vgnd vpwr scs8hd_decap_12
XFILLER_8_163 vgnd vpwr scs8hd_decap_12
XANTENNA__154__B _153_/X vgnd vpwr scs8hd_diode_2
XANTENNA__170__A _109_/X vgnd vpwr scs8hd_diode_2
XFILLER_10_107 vpwr vgnd scs8hd_fill_2
XFILLER_12_36 vgnd vpwr scs8hd_decap_3
XFILLER_41_232 vgnd vpwr scs8hd_decap_12
XFILLER_26_251 vgnd vpwr scs8hd_decap_12
XFILLER_5_111 vgnd vpwr scs8hd_decap_8
XANTENNA__140__D _140_/D vgnd vpwr scs8hd_diode_2
XANTENNA__149__B _149_/B vgnd vpwr scs8hd_diode_2
XFILLER_32_276 vgnd vpwr scs8hd_fill_1
XANTENNA__165__A _165_/A vgnd vpwr scs8hd_diode_2
XFILLER_4_81 vgnd vpwr scs8hd_decap_8
XANTENNA_mux_left_track_7.mux_l1_in_0_.TGATE_1_.scs8hd_ebufn_2_A mux_left_track_7.INVTX1_1_.scs8hd_inv_1/Y
+ vgnd vpwr scs8hd_diode_2
XFILLER_23_243 vgnd vpwr scs8hd_fill_1
XANTENNA_mem_top_track_8.LATCH_0_.latch_D data_in vgnd vpwr scs8hd_diode_2
XFILLER_23_57 vpwr vgnd scs8hd_fill_2
Xmux_left_track_13.INVTX1_1_.scs8hd_inv_1 left_bottom_grid_pin_11_ mux_left_track_13.INVTX1_1_.scs8hd_inv_1/Y
+ vgnd vpwr scs8hd_inv_1
XFILLER_2_114 vgnd vpwr scs8hd_decap_12
XFILLER_2_103 vgnd vpwr scs8hd_decap_8
XFILLER_9_37 vgnd vpwr scs8hd_decap_4
XFILLER_9_48 vpwr vgnd scs8hd_fill_2
XFILLER_14_276 vgnd vpwr scs8hd_fill_1
X_187_ _187_/A _187_/Y vgnd vpwr scs8hd_inv_8
Xmux_left_track_9.INVTX1_0_.scs8hd_inv_1 chany_top_in[5] mux_left_track_9.INVTX1_0_.scs8hd_inv_1/Y
+ vgnd vpwr scs8hd_inv_1
XFILLER_18_68 vpwr vgnd scs8hd_fill_2
XFILLER_18_79 vgnd vpwr scs8hd_decap_4
X_110_ _104_/A _123_/B _123_/C _109_/X _112_/B vgnd vpwr scs8hd_or4_4
X_239_ _239_/A chany_top_out[4] vgnd vpwr scs8hd_buf_2
XANTENNA__146__C _157_/C vgnd vpwr scs8hd_diode_2
XFILLER_41_3 vgnd vpwr scs8hd_decap_12
XANTENNA__162__B _160_/X vgnd vpwr scs8hd_diode_2
XFILLER_37_121 vgnd vpwr scs8hd_fill_1
XANTENNA_mux_top_track_16.tap_buf4_0_.scs8hd_inv_1_A mux_top_track_16.tap_buf4_0_.scs8hd_inv_1/A
+ vgnd vpwr scs8hd_diode_2
XFILLER_29_89 vpwr vgnd scs8hd_fill_2
XFILLER_6_27 vgnd vpwr scs8hd_decap_4
XFILLER_3_220 vgnd vpwr scs8hd_decap_12
XANTENNA_mux_left_track_11.mux_l2_in_0_.TGATE_1_.scs8hd_ebufn_2_A _209_/HI vgnd vpwr
+ scs8hd_diode_2
XANTENNA__157__B address[2] vgnd vpwr scs8hd_diode_2
XANTENNA__173__A _173_/A vgnd vpwr scs8hd_diode_2
XANTENNA_mem_left_track_9.LATCH_1_.latch_SLEEPB _158_/Y vgnd vpwr scs8hd_diode_2
XFILLER_40_116 vgnd vpwr scs8hd_decap_12
XFILLER_25_168 vgnd vpwr scs8hd_decap_12
XFILLER_15_36 vgnd vpwr scs8hd_decap_4
XPHY_130 vgnd vpwr scs8hd_tapvpwrvgnd_1
XPHY_141 vgnd vpwr scs8hd_tapvpwrvgnd_1
XPHY_152 vgnd vpwr scs8hd_tapvpwrvgnd_1
XFILLER_16_102 vgnd vpwr scs8hd_decap_3
XFILLER_16_124 vpwr vgnd scs8hd_fill_2
XFILLER_16_146 vgnd vpwr scs8hd_decap_6
XFILLER_24_190 vgnd vpwr scs8hd_decap_12
XANTENNA__143__D _109_/A vgnd vpwr scs8hd_diode_2
XPHY_163 vgnd vpwr scs8hd_tapvpwrvgnd_1
XPHY_174 vgnd vpwr scs8hd_tapvpwrvgnd_1
XPHY_185 vgnd vpwr scs8hd_tapvpwrvgnd_1
XANTENNA_mem_left_track_17.LATCH_1_.latch_D data_in vgnd vpwr scs8hd_diode_2
XPHY_196 vgnd vpwr scs8hd_tapvpwrvgnd_1
XFILLER_39_249 vgnd vpwr scs8hd_decap_6
XANTENNA__168__A _123_/D vgnd vpwr scs8hd_diode_2
Xmux_left_track_1.mux_l1_in_0_.TGATE_0_.scs8hd_ebufn_2 mux_left_track_1.INVTX1_0_.scs8hd_inv_1/Y
+ _191_/A mux_left_track_1.mux_l1_in_0_.TGATE_0_.scs8hd_ebufn_2/Z vgnd vpwr scs8hd_ebufn_2
XANTENNA_mux_left_track_17.INVTX1_0_.scs8hd_inv_1_A chany_top_in[1] vgnd vpwr scs8hd_diode_2
Xmux_top_track_0.INVTX1_0_.scs8hd_inv_1 top_left_grid_pin_13_ mux_top_track_0.INVTX1_0_.scs8hd_inv_1/Y
+ vgnd vpwr scs8hd_inv_1
XFILLER_13_138 vpwr vgnd scs8hd_fill_2
XFILLER_13_149 vpwr vgnd scs8hd_fill_2
XFILLER_42_56 vgnd vpwr scs8hd_decap_6
XFILLER_21_160 vgnd vpwr scs8hd_decap_12
XFILLER_3_39 vgnd vpwr scs8hd_decap_12
XANTENNA_mux_top_track_12.INVTX1_1_.scs8hd_inv_1_A chanx_left_in[3] vgnd vpwr scs8hd_diode_2
XFILLER_8_175 vgnd vpwr scs8hd_decap_12
XANTENNA__170__B _170_/B vgnd vpwr scs8hd_diode_2
XFILLER_27_208 vgnd vpwr scs8hd_decap_12
XANTENNA_mux_left_track_7.mux_l2_in_0_.TGATE_1_.scs8hd_ebufn_2_TEB _196_/Y vgnd vpwr
+ scs8hd_diode_2
XFILLER_26_263 vgnd vpwr scs8hd_decap_12
Xmem_top_track_8.LATCH_1_.latch data_in _180_/A _124_/Y vgnd vpwr scs8hd_lpflow_inputisolatch_1
XFILLER_5_156 vpwr vgnd scs8hd_fill_2
XFILLER_5_145 vpwr vgnd scs8hd_fill_2
XFILLER_5_123 vgnd vpwr scs8hd_fill_1
Xmux_top_track_0.mux_l1_in_0_.TGATE_1_.scs8hd_ebufn_2 mux_top_track_0.INVTX1_1_.scs8hd_inv_1/Y
+ _173_/Y mux_top_track_0.mux_l1_in_0_.TGATE_0_.scs8hd_ebufn_2/Z vgnd vpwr scs8hd_ebufn_2
XANTENNA__149__C _157_/C vgnd vpwr scs8hd_diode_2
XANTENNA__165__B _165_/B vgnd vpwr scs8hd_diode_2
XANTENNA__181__A _181_/A vgnd vpwr scs8hd_diode_2
XFILLER_4_93 vgnd vpwr scs8hd_decap_4
XFILLER_4_71 vpwr vgnd scs8hd_fill_2
XFILLER_23_36 vpwr vgnd scs8hd_fill_2
Xmux_left_track_5.mux_l1_in_0_.TGATE_1_.scs8hd_ebufn_2 mux_left_track_5.INVTX1_1_.scs8hd_inv_1/Y
+ _195_/Y mux_left_track_5.mux_l1_in_0_.TGATE_1_.scs8hd_ebufn_2/Z vgnd vpwr scs8hd_ebufn_2
XFILLER_2_126 vgnd vpwr scs8hd_decap_8
XFILLER_14_211 vgnd vpwr scs8hd_decap_3
X_186_ _186_/A _186_/Y vgnd vpwr scs8hd_inv_8
XFILLER_36_6 vpwr vgnd scs8hd_fill_2
XANTENNA__176__A _176_/A vgnd vpwr scs8hd_diode_2
Xmem_left_track_11.LATCH_0_.latch data_in _201_/A _162_/Y vgnd vpwr scs8hd_lpflow_inputisolatch_1
XFILLER_20_258 vgnd vpwr scs8hd_decap_12
XANTENNA_mux_top_track_16.mux_l2_in_0_.TGATE_1_.scs8hd_ebufn_2_TEB _188_/Y vgnd vpwr
+ scs8hd_diode_2
XFILLER_34_35 vgnd vpwr scs8hd_decap_8
XFILLER_34_24 vgnd vpwr scs8hd_fill_1
XFILLER_1_3 vgnd vpwr scs8hd_decap_12
Xmux_left_track_11.INVTX1_1_.scs8hd_inv_1 left_bottom_grid_pin_9_ mux_left_track_11.INVTX1_1_.scs8hd_inv_1/Y
+ vgnd vpwr scs8hd_inv_1
XFILLER_6_251 vgnd vpwr scs8hd_decap_12
XANTENNA__146__D _140_/D vgnd vpwr scs8hd_diode_2
X_169_ _123_/D _170_/B _165_/A _169_/Y vgnd vpwr scs8hd_nor3_4
X_238_ _238_/A chany_top_out[5] vgnd vpwr scs8hd_buf_2
XFILLER_34_3 vgnd vpwr scs8hd_decap_6
XFILLER_1_72 vpwr vgnd scs8hd_fill_2
XFILLER_29_24 vpwr vgnd scs8hd_fill_2
XFILLER_28_122 vgnd vpwr scs8hd_decap_4
Xmux_left_track_7.INVTX1_0_.scs8hd_inv_1 chany_top_in[6] mux_left_track_7.INVTX1_0_.scs8hd_inv_1/Y
+ vgnd vpwr scs8hd_inv_1
XFILLER_3_232 vgnd vpwr scs8hd_decap_12
XANTENNA_mem_top_track_10.LATCH_0_.latch_SLEEPB _128_/Y vgnd vpwr scs8hd_diode_2
XFILLER_42_180 vgnd vpwr scs8hd_decap_6
XANTENNA__157__C _157_/C vgnd vpwr scs8hd_diode_2
XFILLER_40_128 vgnd vpwr scs8hd_decap_12
XFILLER_31_47 vpwr vgnd scs8hd_fill_2
XANTENNA_mux_left_track_9.mux_l2_in_0_.TGATE_0_.scs8hd_ebufn_2_TEB _198_/A vgnd vpwr
+ scs8hd_diode_2
XFILLER_0_213 vgnd vpwr scs8hd_decap_4
XPHY_120 vgnd vpwr scs8hd_tapvpwrvgnd_1
XPHY_131 vgnd vpwr scs8hd_tapvpwrvgnd_1
XPHY_142 vgnd vpwr scs8hd_tapvpwrvgnd_1
XPHY_153 vgnd vpwr scs8hd_tapvpwrvgnd_1
XPHY_164 vgnd vpwr scs8hd_tapvpwrvgnd_1
XPHY_175 vgnd vpwr scs8hd_tapvpwrvgnd_1
XPHY_186 vgnd vpwr scs8hd_tapvpwrvgnd_1
XPHY_197 vgnd vpwr scs8hd_tapvpwrvgnd_1
XFILLER_39_228 vpwr vgnd scs8hd_fill_2
XPHY_0 vgnd vpwr scs8hd_decap_3
XANTENNA__168__B _170_/B vgnd vpwr scs8hd_diode_2
XANTENNA__184__A _184_/A vgnd vpwr scs8hd_diode_2
XFILLER_22_128 vgnd vpwr scs8hd_decap_8
XFILLER_13_117 vgnd vpwr scs8hd_decap_3
Xmem_top_track_14.LATCH_0_.latch data_in _187_/A _136_/Y vgnd vpwr scs8hd_lpflow_inputisolatch_1
XFILLER_21_172 vgnd vpwr scs8hd_decap_8
XFILLER_16_80 vgnd vpwr scs8hd_decap_3
XFILLER_8_187 vgnd vpwr scs8hd_decap_12
XANTENNA__170__C _170_/C vgnd vpwr scs8hd_diode_2
XANTENNA_mux_top_track_2.mux_l2_in_0_.TGATE_1_.scs8hd_ebufn_2_TEB _174_/Y vgnd vpwr
+ scs8hd_diode_2
XANTENNA__179__A _179_/A vgnd vpwr scs8hd_diode_2
XFILLER_35_220 vgnd vpwr scs8hd_decap_12
XFILLER_12_27 vpwr vgnd scs8hd_fill_2
XFILLER_37_57 vpwr vgnd scs8hd_fill_2
XFILLER_37_13 vgnd vpwr scs8hd_fill_1
XFILLER_41_245 vgnd vpwr scs8hd_decap_12
XANTENNA_mem_left_track_7.LATCH_1_.latch_D data_in vgnd vpwr scs8hd_diode_2
Xmux_top_track_14.tap_buf4_0_.scs8hd_inv_1 mux_top_track_14.tap_buf4_0_.scs8hd_inv_1/A
+ _236_/A vgnd vpwr scs8hd_inv_1
XANTENNA__149__D _109_/A vgnd vpwr scs8hd_diode_2
XFILLER_17_220 vgnd vpwr scs8hd_decap_12
XANTENNA_mux_left_track_1.mux_l2_in_0_.TGATE_0_.scs8hd_ebufn_2_A mux_left_track_1.mux_l1_in_0_.TGATE_0_.scs8hd_ebufn_2/Z
+ vgnd vpwr scs8hd_diode_2
XFILLER_23_201 vgnd vpwr scs8hd_decap_12
XFILLER_23_245 vgnd vpwr scs8hd_decap_8
XFILLER_2_138 vgnd vpwr scs8hd_decap_12
XFILLER_9_17 vgnd vpwr scs8hd_decap_3
X_185_ _185_/A _185_/Y vgnd vpwr scs8hd_inv_8
XFILLER_1_171 vgnd vpwr scs8hd_decap_12
XFILLER_20_215 vgnd vpwr scs8hd_decap_12
XANTENNA__192__A _192_/A vgnd vpwr scs8hd_diode_2
XFILLER_7_208 vgnd vpwr scs8hd_decap_12
XFILLER_11_259 vpwr vgnd scs8hd_fill_2
XFILLER_40_90 vpwr vgnd scs8hd_fill_2
X_237_ _237_/A chany_top_out[6] vgnd vpwr scs8hd_buf_2
XFILLER_6_263 vgnd vpwr scs8hd_decap_12
X_168_ _123_/D _170_/B _170_/C _168_/Y vgnd vpwr scs8hd_nor3_4
XFILLER_24_91 vgnd vpwr scs8hd_fill_1
XFILLER_27_3 vpwr vgnd scs8hd_fill_2
X_099_ address[4] address[5] _100_/A vgnd vpwr scs8hd_or2_4
XFILLER_37_123 vgnd vpwr scs8hd_decap_12
XANTENNA__187__A _187_/A vgnd vpwr scs8hd_diode_2
XFILLER_1_51 vgnd vpwr scs8hd_decap_8
XFILLER_1_62 vgnd vpwr scs8hd_decap_4
XFILLER_20_27 vpwr vgnd scs8hd_fill_2
XANTENNA__097__A address[3] vgnd vpwr scs8hd_diode_2
XFILLER_10_93 vgnd vpwr scs8hd_fill_1
XFILLER_34_115 vgnd vpwr scs8hd_decap_12
XFILLER_19_80 vpwr vgnd scs8hd_fill_2
XFILLER_19_112 vpwr vgnd scs8hd_fill_2
XFILLER_19_134 vpwr vgnd scs8hd_fill_2
XFILLER_19_156 vgnd vpwr scs8hd_decap_3
XANTENNA_mux_top_track_4.mux_l2_in_0_.TGATE_0_.scs8hd_ebufn_2_TEB _176_/A vgnd vpwr
+ scs8hd_diode_2
XANTENNA__157__D _109_/A vgnd vpwr scs8hd_diode_2
XFILLER_25_115 vpwr vgnd scs8hd_fill_2
XFILLER_31_26 vgnd vpwr scs8hd_decap_6
XFILLER_0_258 vpwr vgnd scs8hd_fill_2
XFILLER_31_118 vpwr vgnd scs8hd_fill_2
XFILLER_31_107 vpwr vgnd scs8hd_fill_2
XPHY_121 vgnd vpwr scs8hd_tapvpwrvgnd_1
XPHY_110 vgnd vpwr scs8hd_tapvpwrvgnd_1
XPHY_132 vgnd vpwr scs8hd_tapvpwrvgnd_1
XPHY_143 vgnd vpwr scs8hd_tapvpwrvgnd_1
XPHY_154 vgnd vpwr scs8hd_tapvpwrvgnd_1
XPHY_165 vgnd vpwr scs8hd_tapvpwrvgnd_1
XPHY_176 vgnd vpwr scs8hd_tapvpwrvgnd_1
XPHY_187 vgnd vpwr scs8hd_tapvpwrvgnd_1
XPHY_198 vgnd vpwr scs8hd_tapvpwrvgnd_1
XFILLER_21_92 vpwr vgnd scs8hd_fill_2
Xmux_left_track_5.INVTX1_0_.scs8hd_inv_1 chany_top_in[7] mux_left_track_5.INVTX1_0_.scs8hd_inv_1/Y
+ vgnd vpwr scs8hd_inv_1
XPHY_1 vgnd vpwr scs8hd_decap_3
XANTENNA__168__C _170_/C vgnd vpwr scs8hd_diode_2
XFILLER_22_118 vgnd vpwr scs8hd_fill_1
XFILLER_7_72 vpwr vgnd scs8hd_fill_2
XFILLER_15_181 vpwr vgnd scs8hd_fill_2
XFILLER_38_251 vgnd vpwr scs8hd_decap_12
XANTENNA_mux_top_track_14.mux_l2_in_0_.TGATE_0_.scs8hd_ebufn_2_A mux_top_track_14.mux_l1_in_0_.TGATE_0_.scs8hd_ebufn_2/Z
+ vgnd vpwr scs8hd_diode_2
XFILLER_21_184 vgnd vpwr scs8hd_decap_12
XFILLER_12_140 vpwr vgnd scs8hd_fill_2
XFILLER_8_199 vgnd vpwr scs8hd_decap_12
XFILLER_35_232 vgnd vpwr scs8hd_decap_12
XANTENNA__195__A _195_/A vgnd vpwr scs8hd_diode_2
XANTENNA_mux_top_track_10.mux_l1_in_0_.TGATE_0_.scs8hd_ebufn_2_A mux_top_track_10.INVTX1_0_.scs8hd_inv_1/Y
+ vgnd vpwr scs8hd_diode_2