* NGSPICE file created from sb_3__3_.ext - technology: EFS8A

* Black-box entry subcircuit for scs8hd_decap_12 abstract view
.subckt scs8hd_decap_12 vgnd vpwr
.ends

* Black-box entry subcircuit for scs8hd_decap_8 abstract view
.subckt scs8hd_decap_8 vgnd vpwr
.ends

* Black-box entry subcircuit for scs8hd_inv_1 abstract view
.subckt scs8hd_inv_1 A Y vgnd vpwr
.ends

* Black-box entry subcircuit for scs8hd_fill_2 abstract view
.subckt scs8hd_fill_2 vpwr vgnd
.ends

* Black-box entry subcircuit for scs8hd_diode_2 abstract view
.subckt scs8hd_diode_2 DIODE vgnd vpwr
.ends

* Black-box entry subcircuit for scs8hd_decap_4 abstract view
.subckt scs8hd_decap_4 vgnd vpwr
.ends

* Black-box entry subcircuit for scs8hd_ebufn_2 abstract view
.subckt scs8hd_ebufn_2 A TEB Z vgnd vpwr
.ends

* Black-box entry subcircuit for scs8hd_inv_8 abstract view
.subckt scs8hd_inv_8 A Y vgnd vpwr
.ends

* Black-box entry subcircuit for scs8hd_nor2_4 abstract view
.subckt scs8hd_nor2_4 A B Y vgnd vpwr
.ends

* Black-box entry subcircuit for scs8hd_decap_3 abstract view
.subckt scs8hd_decap_3 vgnd vpwr
.ends

* Black-box entry subcircuit for scs8hd_fill_1 abstract view
.subckt scs8hd_fill_1 vgnd vpwr
.ends

* Black-box entry subcircuit for scs8hd_buf_1 abstract view
.subckt scs8hd_buf_1 A X vgnd vpwr
.ends

* Black-box entry subcircuit for scs8hd_tapvpwrvgnd_1 abstract view
.subckt scs8hd_tapvpwrvgnd_1 vgnd vpwr
.ends

* Black-box entry subcircuit for scs8hd_or4_4 abstract view
.subckt scs8hd_or4_4 A B C D X vgnd vpwr
.ends

* Black-box entry subcircuit for scs8hd_lpflow_inputisolatch_1 abstract view
.subckt scs8hd_lpflow_inputisolatch_1 D Q SLEEPB vgnd vpwr
.ends

* Black-box entry subcircuit for scs8hd_decap_6 abstract view
.subckt scs8hd_decap_6 vgnd vpwr
.ends

* Black-box entry subcircuit for scs8hd_buf_2 abstract view
.subckt scs8hd_buf_2 A X vgnd vpwr
.ends

* Black-box entry subcircuit for scs8hd_nor3_4 abstract view
.subckt scs8hd_nor3_4 A B C Y vgnd vpwr
.ends

* Black-box entry subcircuit for scs8hd_or2_4 abstract view
.subckt scs8hd_or2_4 A B X vgnd vpwr
.ends

* Black-box entry subcircuit for scs8hd_conb_1 abstract view
.subckt scs8hd_conb_1 HI LO vgnd vpwr
.ends

* Black-box entry subcircuit for scs8hd_nand2_4 abstract view
.subckt scs8hd_nand2_4 A B Y vgnd vpwr
.ends

.subckt sb_3__3_ address[0] address[1] address[2] address[3] address[4] address[5]
+ bottom_left_grid_pin_13_ bottom_right_grid_pin_11_ bottom_right_grid_pin_13_ bottom_right_grid_pin_15_
+ bottom_right_grid_pin_1_ bottom_right_grid_pin_3_ bottom_right_grid_pin_5_ bottom_right_grid_pin_7_
+ bottom_right_grid_pin_9_ chanx_left_in[0] chanx_left_in[1] chanx_left_in[2] chanx_left_in[3]
+ chanx_left_in[4] chanx_left_in[5] chanx_left_in[6] chanx_left_in[7] chanx_left_in[8]
+ chanx_left_out[0] chanx_left_out[1] chanx_left_out[2] chanx_left_out[3] chanx_left_out[4]
+ chanx_left_out[5] chanx_left_out[6] chanx_left_out[7] chanx_left_out[8] chany_bottom_in[0]
+ chany_bottom_in[1] chany_bottom_in[2] chany_bottom_in[3] chany_bottom_in[4] chany_bottom_in[5]
+ chany_bottom_in[6] chany_bottom_in[7] chany_bottom_in[8] chany_bottom_out[0] chany_bottom_out[1]
+ chany_bottom_out[2] chany_bottom_out[3] chany_bottom_out[4] chany_bottom_out[5]
+ chany_bottom_out[6] chany_bottom_out[7] chany_bottom_out[8] data_in enable left_bottom_grid_pin_12_
+ left_top_grid_pin_11_ left_top_grid_pin_13_ left_top_grid_pin_15_ left_top_grid_pin_1_
+ left_top_grid_pin_3_ left_top_grid_pin_5_ left_top_grid_pin_7_ left_top_grid_pin_9_
+ vpwr vgnd
XFILLER_22_166 vgnd vpwr scs8hd_decap_12
XFILLER_22_144 vgnd vpwr scs8hd_decap_8
Xmux_bottom_track_1.INVTX1_1_.scs8hd_inv_1 chanx_left_in[1] mux_bottom_track_1.INVTX1_1_.scs8hd_inv_1/Y
+ vgnd vpwr scs8hd_inv_1
XFILLER_13_111 vpwr vgnd scs8hd_fill_2
XANTENNA_mem_bottom_track_7.LATCH_1_.latch_D data_in vgnd vpwr scs8hd_diode_2
XFILLER_13_166 vpwr vgnd scs8hd_fill_2
XFILLER_3_34 vpwr vgnd scs8hd_fill_2
XFILLER_27_269 vgnd vpwr scs8hd_decap_8
XANTENNA_mux_left_track_9.mux_l2_in_0_.TGATE_1_.scs8hd_ebufn_2_A _225_/HI vgnd vpwr
+ scs8hd_diode_2
XFILLER_12_21 vpwr vgnd scs8hd_fill_2
XFILLER_12_43 vpwr vgnd scs8hd_fill_2
XFILLER_37_62 vgnd vpwr scs8hd_decap_12
XFILLER_37_51 vgnd vpwr scs8hd_decap_8
XANTENNA__108__B enable vgnd vpwr scs8hd_diode_2
XFILLER_5_162 vgnd vpwr scs8hd_decap_4
XANTENNA__124__A _127_/A vgnd vpwr scs8hd_diode_2
XFILLER_24_239 vgnd vpwr scs8hd_decap_12
XANTENNA_mux_left_track_5.mux_l1_in_0_.TGATE_1_.scs8hd_ebufn_2_A mux_left_track_5.INVTX1_1_.scs8hd_inv_1/Y
+ vgnd vpwr scs8hd_diode_2
Xmux_left_track_1.mux_l2_in_0_.TGATE_0_.scs8hd_ebufn_2 mux_left_track_1.mux_l1_in_0_.TGATE_0_.scs8hd_ebufn_2/Z
+ _190_/A mux_left_track_1.tap_buf4_0_.scs8hd_inv_1/A vgnd vpwr scs8hd_ebufn_2
X_200_ _200_/A _200_/Y vgnd vpwr scs8hd_inv_8
XANTENNA_mux_left_track_3.INVTX1_1_.scs8hd_inv_1_A left_top_grid_pin_3_ vgnd vpwr
+ scs8hd_diode_2
XFILLER_23_53 vgnd vpwr scs8hd_decap_4
XFILLER_23_42 vpwr vgnd scs8hd_fill_2
X_131_ _135_/A _130_/X _131_/Y vgnd vpwr scs8hd_nor2_4
XFILLER_2_165 vgnd vpwr scs8hd_decap_8
XFILLER_2_154 vpwr vgnd scs8hd_fill_2
XFILLER_2_110 vgnd vpwr scs8hd_decap_3
XANTENNA__110__C _100_/X vgnd vpwr scs8hd_diode_2
XANTENNA__119__A _127_/A vgnd vpwr scs8hd_diode_2
XFILLER_9_22 vgnd vpwr scs8hd_decap_3
XFILLER_9_88 vpwr vgnd scs8hd_fill_2
Xmux_bottom_track_9.tap_buf4_0_.scs8hd_inv_1 mux_bottom_track_9.tap_buf4_0_.scs8hd_inv_1/A
+ _239_/A vgnd vpwr scs8hd_inv_1
XANTENNA_mem_bottom_track_17.LATCH_0_.latch_D data_in vgnd vpwr scs8hd_diode_2
Xmux_bottom_track_1.mux_l1_in_0_.TGATE_1_.scs8hd_ebufn_2 mux_bottom_track_1.INVTX1_1_.scs8hd_inv_1/Y
+ _173_/Y mux_bottom_track_1.mux_l2_in_0_.TGATE_0_.scs8hd_ebufn_2/A vgnd vpwr scs8hd_ebufn_2
XFILLER_34_30 vgnd vpwr scs8hd_fill_1
XANTENNA_mux_left_track_15.mux_l2_in_0_.TGATE_1_.scs8hd_ebufn_2_TEB _204_/Y vgnd vpwr
+ scs8hd_diode_2
XFILLER_7_257 vgnd vpwr scs8hd_decap_12
X_114_ _163_/B _130_/B vgnd vpwr scs8hd_buf_1
XFILLER_38_117 vgnd vpwr scs8hd_decap_12
XFILLER_39_19 vpwr vgnd scs8hd_fill_2
XFILLER_29_74 vgnd vpwr scs8hd_decap_12
Xmux_left_track_5.mux_l2_in_0_.TGATE_1_.scs8hd_ebufn_2 _223_/HI _194_/Y mux_left_track_5.tap_buf4_0_.scs8hd_inv_1/A
+ vgnd vpwr scs8hd_ebufn_2
XFILLER_20_87 vgnd vpwr scs8hd_decap_3
XANTENNA_mem_left_track_11.LATCH_0_.latch_D data_in vgnd vpwr scs8hd_diode_2
XANTENNA__116__B _115_/X vgnd vpwr scs8hd_diode_2
XANTENNA_mux_bottom_track_17.mux_l1_in_0_.TGATE_1_.scs8hd_ebufn_2_A mux_bottom_track_17.INVTX1_1_.scs8hd_inv_1/Y
+ vgnd vpwr scs8hd_diode_2
XANTENNA__132__A address[0] vgnd vpwr scs8hd_diode_2
XFILLER_13_3 vpwr vgnd scs8hd_fill_2
XFILLER_40_178 vgnd vpwr scs8hd_decap_12
XFILLER_31_53 vgnd vpwr scs8hd_decap_8
XFILLER_31_86 vgnd vpwr scs8hd_decap_12
XANTENNA_mux_bottom_track_15.mux_l1_in_0_.TGATE_1_.scs8hd_ebufn_2_TEB _187_/Y vgnd
+ vpwr scs8hd_diode_2
XFILLER_31_123 vgnd vpwr scs8hd_decap_12
XANTENNA__127__A _127_/A vgnd vpwr scs8hd_diode_2
XFILLER_16_120 vpwr vgnd scs8hd_fill_2
XPHY_170 vgnd vpwr scs8hd_tapvpwrvgnd_1
XPHY_192 vgnd vpwr scs8hd_tapvpwrvgnd_1
XPHY_181 vgnd vpwr scs8hd_tapvpwrvgnd_1
XFILLER_39_245 vgnd vpwr scs8hd_decap_12
XFILLER_22_178 vgnd vpwr scs8hd_decap_12
XFILLER_9_105 vpwr vgnd scs8hd_fill_2
XFILLER_42_63 vgnd vpwr scs8hd_decap_12
XFILLER_3_79 vpwr vgnd scs8hd_fill_2
XFILLER_3_57 vpwr vgnd scs8hd_fill_2
XFILLER_3_13 vgnd vpwr scs8hd_decap_4
XFILLER_36_215 vgnd vpwr scs8hd_decap_12
XFILLER_42_218 vgnd vpwr scs8hd_decap_12
XFILLER_10_104 vpwr vgnd scs8hd_fill_2
XFILLER_10_137 vpwr vgnd scs8hd_fill_2
XFILLER_12_88 vgnd vpwr scs8hd_decap_4
XANTENNA__230__A _230_/A vgnd vpwr scs8hd_diode_2
XFILLER_37_74 vgnd vpwr scs8hd_decap_12
Xmux_left_track_13.tap_buf4_0_.scs8hd_inv_1 mux_left_track_13.tap_buf4_0_.scs8hd_inv_1/A
+ _228_/A vgnd vpwr scs8hd_inv_1
XANTENNA_mux_left_track_17.mux_l2_in_0_.TGATE_0_.scs8hd_ebufn_2_TEB _206_/A vgnd vpwr
+ scs8hd_diode_2
XFILLER_18_215 vgnd vpwr scs8hd_decap_12
XANTENNA__124__B _124_/B vgnd vpwr scs8hd_diode_2
XANTENNA_mux_bottom_track_1.mux_l1_in_0_.TGATE_1_.scs8hd_ebufn_2_TEB _173_/Y vgnd
+ vpwr scs8hd_diode_2
XANTENNA__140__A _118_/A vgnd vpwr scs8hd_diode_2
XANTENNA_mem_bottom_track_15.LATCH_0_.latch_SLEEPB _136_/Y vgnd vpwr scs8hd_diode_2
XFILLER_32_251 vgnd vpwr scs8hd_decap_12
XANTENNA_mux_left_track_9.INVTX1_0_.scs8hd_inv_1_A chany_bottom_in[3] vgnd vpwr scs8hd_diode_2
XFILLER_23_21 vgnd vpwr scs8hd_decap_4
X_130_ _130_/A _130_/B _130_/C _169_/A _130_/X vgnd vpwr scs8hd_or4_4
XFILLER_2_122 vpwr vgnd scs8hd_fill_2
XANTENNA__110__D _110_/D vgnd vpwr scs8hd_diode_2
XANTENNA_mux_left_track_5.tap_buf4_0_.scs8hd_inv_1_A mux_left_track_5.tap_buf4_0_.scs8hd_inv_1/A
+ vgnd vpwr scs8hd_diode_2
XANTENNA__119__B _118_/X vgnd vpwr scs8hd_diode_2
XFILLER_0_58 vpwr vgnd scs8hd_fill_2
XANTENNA__135__A _135_/A vgnd vpwr scs8hd_diode_2
XFILLER_14_251 vgnd vpwr scs8hd_decap_12
XFILLER_20_276 vgnd vpwr scs8hd_fill_1
Xmux_left_track_5.tap_buf4_0_.scs8hd_inv_1 mux_left_track_5.tap_buf4_0_.scs8hd_inv_1/A
+ _232_/A vgnd vpwr scs8hd_inv_1
XFILLER_18_10 vpwr vgnd scs8hd_fill_2
XANTENNA_mux_bottom_track_17.mux_l1_in_0_.TGATE_0_.scs8hd_ebufn_2_TEB _189_/A vgnd
+ vpwr scs8hd_diode_2
XFILLER_18_76 vpwr vgnd scs8hd_fill_2
XFILLER_7_214 vgnd vpwr scs8hd_fill_1
XFILLER_7_225 vpwr vgnd scs8hd_fill_2
XFILLER_7_236 vgnd vpwr scs8hd_decap_8
X_113_ address[2] _163_/B vgnd vpwr scs8hd_inv_8
XANTENNA_mux_left_track_7.mux_l1_in_0_.TGATE_1_.scs8hd_ebufn_2_TEB _197_/Y vgnd vpwr
+ scs8hd_diode_2
XANTENNA_mem_left_track_1.LATCH_0_.latch_SLEEPB _145_/Y vgnd vpwr scs8hd_diode_2
XFILLER_7_269 vgnd vpwr scs8hd_decap_8
XFILLER_38_129 vgnd vpwr scs8hd_decap_12
XFILLER_15_7 vgnd vpwr scs8hd_fill_1
XFILLER_37_184 vgnd vpwr scs8hd_decap_12
XFILLER_20_66 vgnd vpwr scs8hd_decap_4
XFILLER_29_86 vgnd vpwr scs8hd_decap_12
XFILLER_29_53 vgnd vpwr scs8hd_decap_8
XFILLER_29_42 vpwr vgnd scs8hd_fill_2
XANTENNA_mux_bottom_track_3.mux_l2_in_0_.TGATE_0_.scs8hd_ebufn_2_A mux_bottom_track_3.mux_l1_in_0_.TGATE_0_.scs8hd_ebufn_2/Z
+ vgnd vpwr scs8hd_diode_2
XFILLER_6_13 vpwr vgnd scs8hd_fill_2
XFILLER_6_24 vpwr vgnd scs8hd_fill_2
XFILLER_6_35 vpwr vgnd scs8hd_fill_2
Xmux_left_track_3.mux_l1_in_0_.TGATE_0_.scs8hd_ebufn_2 mux_left_track_3.INVTX1_0_.scs8hd_inv_1/Y
+ _193_/A mux_left_track_3.mux_l2_in_0_.TGATE_0_.scs8hd_ebufn_2/A vgnd vpwr scs8hd_ebufn_2
XFILLER_19_184 vgnd vpwr scs8hd_decap_12
XFILLER_34_154 vgnd vpwr scs8hd_decap_12
Xmem_left_track_5.LATCH_1_.latch data_in _194_/A _150_/Y vgnd vpwr scs8hd_lpflow_inputisolatch_1
XANTENNA_mem_bottom_track_13.LATCH_1_.latch_SLEEPB _131_/Y vgnd vpwr scs8hd_diode_2
XFILLER_15_77 vpwr vgnd scs8hd_fill_2
XFILLER_15_88 vpwr vgnd scs8hd_fill_2
XFILLER_31_98 vgnd vpwr scs8hd_decap_12
XANTENNA__233__A _233_/A vgnd vpwr scs8hd_diode_2
XFILLER_0_253 vpwr vgnd scs8hd_fill_2
XFILLER_31_135 vgnd vpwr scs8hd_decap_12
Xmux_left_track_17.INVTX1_1_.scs8hd_inv_1 left_bottom_grid_pin_12_ mux_left_track_17.INVTX1_1_.scs8hd_inv_1/Y
+ vgnd vpwr scs8hd_inv_1
XPHY_193 vgnd vpwr scs8hd_tapvpwrvgnd_1
XANTENNA_mux_bottom_track_3.mux_l1_in_0_.TGATE_0_.scs8hd_ebufn_2_TEB _175_/A vgnd
+ vpwr scs8hd_diode_2
XANTENNA__127__B _127_/B vgnd vpwr scs8hd_diode_2
XPHY_160 vgnd vpwr scs8hd_tapvpwrvgnd_1
XPHY_171 vgnd vpwr scs8hd_tapvpwrvgnd_1
XPHY_182 vgnd vpwr scs8hd_tapvpwrvgnd_1
XANTENNA__143__A _118_/A vgnd vpwr scs8hd_diode_2
XFILLER_39_257 vgnd vpwr scs8hd_decap_12
XFILLER_30_190 vgnd vpwr scs8hd_decap_12
XFILLER_26_10 vpwr vgnd scs8hd_fill_2
XANTENNA__228__A _228_/A vgnd vpwr scs8hd_diode_2
XFILLER_26_87 vgnd vpwr scs8hd_decap_4
XFILLER_26_43 vgnd vpwr scs8hd_fill_1
XANTENNA_mem_left_track_1.LATCH_0_.latch_D data_in vgnd vpwr scs8hd_diode_2
XFILLER_42_75 vgnd vpwr scs8hd_decap_12
Xmux_bottom_track_17.tap_buf4_0_.scs8hd_inv_1 mux_bottom_track_17.tap_buf4_0_.scs8hd_inv_1/A
+ _235_/A vgnd vpwr scs8hd_inv_1
XFILLER_36_227 vgnd vpwr scs8hd_decap_12
XANTENNA__138__A address[4] vgnd vpwr scs8hd_diode_2
Xmux_left_track_7.mux_l1_in_0_.TGATE_1_.scs8hd_ebufn_2 mux_left_track_7.INVTX1_1_.scs8hd_inv_1/Y
+ _197_/Y mux_left_track_7.mux_l2_in_0_.TGATE_0_.scs8hd_ebufn_2/A vgnd vpwr scs8hd_ebufn_2
XANTENNA_mux_left_track_9.mux_l1_in_0_.TGATE_0_.scs8hd_ebufn_2_TEB _199_/A vgnd vpwr
+ scs8hd_diode_2
XFILLER_37_86 vgnd vpwr scs8hd_decap_12
XFILLER_33_208 vgnd vpwr scs8hd_decap_12
XFILLER_18_227 vgnd vpwr scs8hd_decap_12
XFILLER_5_175 vgnd vpwr scs8hd_decap_6
XFILLER_5_197 vpwr vgnd scs8hd_fill_2
XANTENNA__140__B _143_/B vgnd vpwr scs8hd_diode_2
XFILLER_32_263 vgnd vpwr scs8hd_decap_12
XFILLER_15_208 vgnd vpwr scs8hd_decap_12
XFILLER_3_3 vgnd vpwr scs8hd_fill_1
XFILLER_2_145 vpwr vgnd scs8hd_fill_2
XANTENNA__241__A _241_/A vgnd vpwr scs8hd_diode_2
XFILLER_0_37 vpwr vgnd scs8hd_fill_2
XFILLER_14_263 vgnd vpwr scs8hd_decap_12
X_189_ _189_/A _189_/Y vgnd vpwr scs8hd_inv_8
XFILLER_9_57 vpwr vgnd scs8hd_fill_2
XANTENNA__135__B _135_/B vgnd vpwr scs8hd_diode_2
XFILLER_36_3 vgnd vpwr scs8hd_decap_12
XANTENNA__151__A _133_/A vgnd vpwr scs8hd_diode_2
XFILLER_34_32 vgnd vpwr scs8hd_decap_12
XFILLER_18_88 vpwr vgnd scs8hd_fill_2
X_112_ _128_/A _110_/X _112_/Y vgnd vpwr scs8hd_nor2_4
XANTENNA__236__A _236_/A vgnd vpwr scs8hd_diode_2
XFILLER_7_248 vpwr vgnd scs8hd_fill_2
XANTENNA__146__A address[3] vgnd vpwr scs8hd_diode_2
XFILLER_6_270 vgnd vpwr scs8hd_decap_4
XFILLER_37_196 vgnd vpwr scs8hd_decap_12
XFILLER_20_12 vpwr vgnd scs8hd_fill_2
XFILLER_20_23 vgnd vpwr scs8hd_decap_6
XFILLER_29_98 vgnd vpwr scs8hd_decap_12
XFILLER_28_141 vgnd vpwr scs8hd_decap_12
XANTENNA_mux_bottom_track_11.mux_l2_in_0_.TGATE_0_.scs8hd_ebufn_2_A mux_bottom_track_11.mux_l2_in_0_.TGATE_0_.scs8hd_ebufn_2/A
+ vgnd vpwr scs8hd_diode_2
XFILLER_20_6 vgnd vpwr scs8hd_decap_4
XFILLER_34_166 vgnd vpwr scs8hd_decap_12
XFILLER_19_130 vgnd vpwr scs8hd_decap_12
XFILLER_19_196 vgnd vpwr scs8hd_decap_12
XFILLER_15_23 vpwr vgnd scs8hd_fill_2
XFILLER_15_34 vpwr vgnd scs8hd_fill_2
XANTENNA_mux_bottom_track_11.INVTX1_1_.scs8hd_inv_1_A chanx_left_in[6] vgnd vpwr scs8hd_diode_2
XFILLER_31_22 vpwr vgnd scs8hd_fill_2
XFILLER_31_11 vpwr vgnd scs8hd_fill_2
XFILLER_0_265 vpwr vgnd scs8hd_fill_2
XFILLER_0_243 vgnd vpwr scs8hd_decap_4
XFILLER_16_133 vgnd vpwr scs8hd_decap_8
XFILLER_16_144 vgnd vpwr scs8hd_decap_8
XFILLER_31_147 vgnd vpwr scs8hd_decap_12
XPHY_194 vgnd vpwr scs8hd_tapvpwrvgnd_1
XPHY_150 vgnd vpwr scs8hd_tapvpwrvgnd_1
XPHY_161 vgnd vpwr scs8hd_tapvpwrvgnd_1
XPHY_172 vgnd vpwr scs8hd_tapvpwrvgnd_1
XPHY_183 vgnd vpwr scs8hd_tapvpwrvgnd_1
XANTENNA__143__B _143_/B vgnd vpwr scs8hd_diode_2
XFILLER_39_269 vgnd vpwr scs8hd_decap_8
XANTENNA_mux_bottom_track_7.tap_buf4_0_.scs8hd_inv_1_A mux_bottom_track_7.tap_buf4_0_.scs8hd_inv_1/A
+ vgnd vpwr scs8hd_diode_2
XFILLER_26_66 vpwr vgnd scs8hd_fill_2
XFILLER_26_55 vgnd vpwr scs8hd_decap_8
XFILLER_42_87 vgnd vpwr scs8hd_decap_6
XFILLER_42_32 vgnd vpwr scs8hd_decap_12
XFILLER_9_118 vpwr vgnd scs8hd_fill_2
XFILLER_13_136 vpwr vgnd scs8hd_fill_2
XFILLER_36_239 vgnd vpwr scs8hd_decap_12
XANTENNA__138__B _166_/D vgnd vpwr scs8hd_diode_2
XFILLER_8_184 vpwr vgnd scs8hd_fill_2
XANTENNA__154__A _170_/C vgnd vpwr scs8hd_diode_2
XANTENNA_mux_left_track_17.mux_l2_in_0_.TGATE_0_.scs8hd_ebufn_2_A mux_left_track_17.mux_l2_in_0_.TGATE_0_.scs8hd_ebufn_2/A
+ vgnd vpwr scs8hd_diode_2
Xmux_left_track_15.INVTX1_1_.scs8hd_inv_1 left_top_grid_pin_15_ mux_left_track_15.INVTX1_1_.scs8hd_inv_1/Y
+ vgnd vpwr scs8hd_inv_1
XFILLER_12_68 vgnd vpwr scs8hd_fill_1
XFILLER_41_220 vgnd vpwr scs8hd_decap_12
XFILLER_37_98 vgnd vpwr scs8hd_decap_12
XANTENNA__239__A _239_/A vgnd vpwr scs8hd_diode_2
XFILLER_18_239 vgnd vpwr scs8hd_decap_12
XFILLER_38_7 vgnd vpwr scs8hd_decap_12
Xmem_left_track_15.LATCH_0_.latch data_in _205_/A _169_/Y vgnd vpwr scs8hd_lpflow_inputisolatch_1
XFILLER_5_132 vgnd vpwr scs8hd_decap_4
XFILLER_5_143 vpwr vgnd scs8hd_fill_2
XANTENNA__140__C _139_/X vgnd vpwr scs8hd_diode_2
XANTENNA__149__A address[3] vgnd vpwr scs8hd_diode_2
XANTENNA_mux_left_track_13.mux_l1_in_0_.TGATE_0_.scs8hd_ebufn_2_A mux_left_track_13.INVTX1_0_.scs8hd_inv_1/Y
+ vgnd vpwr scs8hd_diode_2
Xmux_bottom_track_17.mux_l2_in_0_.TGATE_0_.scs8hd_ebufn_2 mux_bottom_track_17.mux_l1_in_0_.TGATE_1_.scs8hd_ebufn_2/Z
+ _188_/A mux_bottom_track_17.tap_buf4_0_.scs8hd_inv_1/A vgnd vpwr scs8hd_ebufn_2
XFILLER_23_220 vgnd vpwr scs8hd_decap_12
XFILLER_23_78 vpwr vgnd scs8hd_fill_2
XANTENNA_mem_left_track_13.LATCH_0_.latch_SLEEPB _165_/Y vgnd vpwr scs8hd_diode_2
XFILLER_2_102 vpwr vgnd scs8hd_fill_2
XFILLER_0_27 vpwr vgnd scs8hd_fill_2
XANTENNA_mux_bottom_track_1.INVTX1_0_.scs8hd_inv_1_A bottom_right_grid_pin_1_ vgnd
+ vpwr scs8hd_diode_2
XFILLER_9_14 vpwr vgnd scs8hd_fill_2
XFILLER_9_36 vpwr vgnd scs8hd_fill_2
X_188_ _188_/A _188_/Y vgnd vpwr scs8hd_inv_8
XANTENNA__151__B _149_/X vgnd vpwr scs8hd_diode_2
XANTENNA_mux_bottom_track_5.INVTX1_1_.scs8hd_inv_1_A chanx_left_in[3] vgnd vpwr scs8hd_diode_2
XFILLER_18_23 vpwr vgnd scs8hd_fill_2
XFILLER_18_56 vgnd vpwr scs8hd_fill_1
XFILLER_34_44 vgnd vpwr scs8hd_decap_12
X_111_ _127_/A _110_/X _111_/Y vgnd vpwr scs8hd_nor2_4
XFILLER_11_245 vgnd vpwr scs8hd_decap_12
XANTENNA__146__B _130_/B vgnd vpwr scs8hd_diode_2
XANTENNA__162__A _169_/C vgnd vpwr scs8hd_diode_2
XFILLER_1_92 vpwr vgnd scs8hd_fill_2
XFILLER_20_79 vpwr vgnd scs8hd_fill_2
XANTENNA_mem_bottom_track_7.LATCH_0_.latch_SLEEPB _120_/Y vgnd vpwr scs8hd_diode_2
XFILLER_3_263 vpwr vgnd scs8hd_fill_2
XFILLER_3_252 vpwr vgnd scs8hd_fill_2
XANTENNA_mem_bottom_track_13.LATCH_1_.latch_D data_in vgnd vpwr scs8hd_diode_2
XFILLER_34_178 vgnd vpwr scs8hd_decap_12
XANTENNA__157__A _130_/A vgnd vpwr scs8hd_diode_2
XFILLER_19_142 vgnd vpwr scs8hd_decap_12
XANTENNA_mem_bottom_track_9.LATCH_0_.latch_D data_in vgnd vpwr scs8hd_diode_2
XFILLER_25_123 vgnd vpwr scs8hd_decap_12
XANTENNA_mux_bottom_track_17.INVTX1_0_.scs8hd_inv_1_A bottom_left_grid_pin_13_ vgnd
+ vpwr scs8hd_diode_2
XFILLER_15_57 vpwr vgnd scs8hd_fill_2
XFILLER_0_200 vpwr vgnd scs8hd_fill_2
XFILLER_31_159 vgnd vpwr scs8hd_decap_12
XPHY_195 vgnd vpwr scs8hd_tapvpwrvgnd_1
XPHY_184 vgnd vpwr scs8hd_tapvpwrvgnd_1
XPHY_140 vgnd vpwr scs8hd_tapvpwrvgnd_1
XPHY_151 vgnd vpwr scs8hd_tapvpwrvgnd_1
XPHY_162 vgnd vpwr scs8hd_tapvpwrvgnd_1
XPHY_173 vgnd vpwr scs8hd_tapvpwrvgnd_1
XANTENNA_mem_left_track_11.LATCH_1_.latch_SLEEPB _161_/Y vgnd vpwr scs8hd_diode_2
XANTENNA__143__C _139_/X vgnd vpwr scs8hd_diode_2
Xmux_left_track_3.mux_l2_in_0_.TGATE_1_.scs8hd_ebufn_2 _222_/HI _192_/Y mux_left_track_3.tap_buf4_0_.scs8hd_inv_1/A
+ vgnd vpwr scs8hd_ebufn_2
XFILLER_11_3 vgnd vpwr scs8hd_decap_3
XFILLER_22_104 vpwr vgnd scs8hd_fill_2
XFILLER_7_91 vpwr vgnd scs8hd_fill_2
XANTENNA_mux_left_track_17.mux_l1_in_0_.TGATE_1_.scs8hd_ebufn_2_TEB _207_/Y vgnd vpwr
+ scs8hd_diode_2
Xmem_left_track_1.LATCH_1_.latch data_in _190_/A _144_/Y vgnd vpwr scs8hd_lpflow_inputisolatch_1
XFILLER_26_23 vpwr vgnd scs8hd_fill_2
XFILLER_13_115 vpwr vgnd scs8hd_fill_2
XANTENNA_mux_left_track_11.INVTX1_1_.scs8hd_inv_1_A left_top_grid_pin_11_ vgnd vpwr
+ scs8hd_diode_2
XFILLER_42_44 vgnd vpwr scs8hd_decap_12
XFILLER_3_38 vgnd vpwr scs8hd_decap_4
XANTENNA__154__B _156_/B vgnd vpwr scs8hd_diode_2
XANTENNA__170__A _110_/D vgnd vpwr scs8hd_diode_2
XFILLER_12_25 vpwr vgnd scs8hd_fill_2
XFILLER_12_47 vpwr vgnd scs8hd_fill_2
XFILLER_41_232 vgnd vpwr scs8hd_decap_12
XFILLER_26_251 vgnd vpwr scs8hd_decap_12
XFILLER_5_166 vgnd vpwr scs8hd_fill_1
XANTENNA__140__D _103_/A vgnd vpwr scs8hd_diode_2
XANTENNA_mem_bottom_track_5.LATCH_1_.latch_SLEEPB _116_/Y vgnd vpwr scs8hd_diode_2
XANTENNA__149__B _130_/B vgnd vpwr scs8hd_diode_2
XFILLER_32_276 vgnd vpwr scs8hd_fill_1
XANTENNA__165__A _169_/C vgnd vpwr scs8hd_diode_2
XFILLER_4_81 vgnd vpwr scs8hd_decap_4
XFILLER_23_232 vgnd vpwr scs8hd_decap_12
XANTENNA_mux_left_track_7.mux_l1_in_0_.TGATE_1_.scs8hd_ebufn_2_A mux_left_track_7.INVTX1_1_.scs8hd_inv_1/Y
+ vgnd vpwr scs8hd_diode_2
XFILLER_23_57 vgnd vpwr scs8hd_fill_1
Xmux_left_track_13.INVTX1_1_.scs8hd_inv_1 left_top_grid_pin_13_ mux_left_track_13.INVTX1_1_.scs8hd_inv_1/Y
+ vgnd vpwr scs8hd_inv_1
XFILLER_14_276 vgnd vpwr scs8hd_fill_1
X_187_ _187_/A _187_/Y vgnd vpwr scs8hd_inv_8
XFILLER_1_180 vgnd vpwr scs8hd_fill_1
Xmux_left_track_9.INVTX1_0_.scs8hd_inv_1 chany_bottom_in[3] mux_left_track_9.INVTX1_0_.scs8hd_inv_1/Y
+ vgnd vpwr scs8hd_inv_1
XFILLER_20_202 vgnd vpwr scs8hd_decap_12
XFILLER_18_46 vpwr vgnd scs8hd_fill_2
XFILLER_18_68 vpwr vgnd scs8hd_fill_2
XFILLER_34_56 vgnd vpwr scs8hd_decap_12
X_110_ _118_/A _143_/B _100_/X _110_/D _110_/X vgnd vpwr scs8hd_or4_4
XANTENNA_mux_bottom_track_15.mux_l2_in_0_.TGATE_1_.scs8hd_ebufn_2_TEB _186_/Y vgnd
+ vpwr scs8hd_diode_2
XFILLER_11_202 vgnd vpwr scs8hd_decap_12
XFILLER_11_257 vgnd vpwr scs8hd_decap_12
XFILLER_7_217 vgnd vpwr scs8hd_fill_1
X_239_ _239_/A chany_bottom_out[4] vgnd vpwr scs8hd_buf_2
XANTENNA__146__C _139_/X vgnd vpwr scs8hd_diode_2
XFILLER_41_3 vgnd vpwr scs8hd_decap_12
XANTENNA__162__B _161_/B vgnd vpwr scs8hd_diode_2
XFILLER_37_110 vgnd vpwr scs8hd_decap_12
XFILLER_1_71 vpwr vgnd scs8hd_fill_2
XFILLER_29_34 vgnd vpwr scs8hd_decap_4
XFILLER_29_12 vpwr vgnd scs8hd_fill_2
XFILLER_28_154 vgnd vpwr scs8hd_decap_12
XFILLER_3_275 vpwr vgnd scs8hd_fill_2
XFILLER_13_7 vgnd vpwr scs8hd_decap_3
XFILLER_19_154 vgnd vpwr scs8hd_decap_12
XANTENNA_mux_left_track_11.mux_l2_in_0_.TGATE_1_.scs8hd_ebufn_2_A _218_/HI vgnd vpwr
+ scs8hd_diode_2
XANTENNA__157__B address[2] vgnd vpwr scs8hd_diode_2
XANTENNA__173__A _173_/A vgnd vpwr scs8hd_diode_2
XFILLER_25_135 vgnd vpwr scs8hd_decap_12
XANTENNA_mem_left_track_9.LATCH_1_.latch_SLEEPB _158_/Y vgnd vpwr scs8hd_diode_2
XFILLER_40_105 vgnd vpwr scs8hd_decap_12
XFILLER_0_212 vgnd vpwr scs8hd_decap_3
XFILLER_24_190 vgnd vpwr scs8hd_decap_12
XPHY_130 vgnd vpwr scs8hd_tapvpwrvgnd_1
XPHY_141 vgnd vpwr scs8hd_tapvpwrvgnd_1
XPHY_152 vgnd vpwr scs8hd_tapvpwrvgnd_1
XFILLER_16_157 vgnd vpwr scs8hd_decap_12
XANTENNA_mem_left_track_17.LATCH_1_.latch_D data_in vgnd vpwr scs8hd_diode_2
XPHY_196 vgnd vpwr scs8hd_tapvpwrvgnd_1
XPHY_185 vgnd vpwr scs8hd_tapvpwrvgnd_1
XANTENNA_mux_bottom_track_1.mux_l2_in_0_.TGATE_1_.scs8hd_ebufn_2_TEB _172_/Y vgnd
+ vpwr scs8hd_diode_2
XANTENNA__143__D _109_/A vgnd vpwr scs8hd_diode_2
XPHY_163 vgnd vpwr scs8hd_tapvpwrvgnd_1
XPHY_174 vgnd vpwr scs8hd_tapvpwrvgnd_1
XANTENNA__168__A _169_/A vgnd vpwr scs8hd_diode_2
Xmux_left_track_1.mux_l1_in_0_.TGATE_0_.scs8hd_ebufn_2 mux_left_track_1.INVTX1_0_.scs8hd_inv_1/Y
+ _191_/A mux_left_track_1.mux_l1_in_0_.TGATE_0_.scs8hd_ebufn_2/Z vgnd vpwr scs8hd_ebufn_2
XANTENNA_mux_left_track_17.INVTX1_0_.scs8hd_inv_1_A chany_bottom_in[7] vgnd vpwr scs8hd_diode_2
XFILLER_26_35 vgnd vpwr scs8hd_decap_8
XFILLER_13_149 vgnd vpwr scs8hd_decap_6
XFILLER_42_56 vgnd vpwr scs8hd_decap_6
XFILLER_21_171 vgnd vpwr scs8hd_decap_12
XFILLER_9_109 vgnd vpwr scs8hd_decap_3
XANTENNA__170__B _169_/B vgnd vpwr scs8hd_diode_2
XFILLER_8_131 vgnd vpwr scs8hd_decap_4
XFILLER_27_208 vgnd vpwr scs8hd_decap_12
XFILLER_10_108 vpwr vgnd scs8hd_fill_2
XFILLER_10_119 vgnd vpwr scs8hd_decap_3
XANTENNA_mux_bottom_track_17.mux_l2_in_0_.TGATE_0_.scs8hd_ebufn_2_TEB _188_/A vgnd
+ vpwr scs8hd_diode_2
XANTENNA_mux_left_track_7.mux_l2_in_0_.TGATE_1_.scs8hd_ebufn_2_TEB _196_/Y vgnd vpwr
+ scs8hd_diode_2
XFILLER_26_263 vgnd vpwr scs8hd_decap_12
XANTENNA__149__C _139_/X vgnd vpwr scs8hd_diode_2
XANTENNA__165__B _165_/B vgnd vpwr scs8hd_diode_2
XANTENNA__181__A _181_/A vgnd vpwr scs8hd_diode_2
XFILLER_23_36 vgnd vpwr scs8hd_decap_4
Xmux_left_track_5.mux_l1_in_0_.TGATE_1_.scs8hd_ebufn_2 mux_left_track_5.INVTX1_1_.scs8hd_inv_1/Y
+ _195_/Y mux_left_track_5.mux_l1_in_0_.TGATE_1_.scs8hd_ebufn_2/Z vgnd vpwr scs8hd_ebufn_2
XFILLER_2_126 vpwr vgnd scs8hd_fill_2
X_186_ _186_/A _186_/Y vgnd vpwr scs8hd_inv_8
XANTENNA__176__A _176_/A vgnd vpwr scs8hd_diode_2
Xmem_left_track_11.LATCH_0_.latch data_in _201_/A _162_/Y vgnd vpwr scs8hd_lpflow_inputisolatch_1
XFILLER_34_68 vgnd vpwr scs8hd_decap_12
XFILLER_11_214 vgnd vpwr scs8hd_decap_12
XFILLER_11_269 vgnd vpwr scs8hd_decap_8
XANTENNA_mux_bottom_track_3.mux_l2_in_0_.TGATE_0_.scs8hd_ebufn_2_TEB _174_/A vgnd
+ vpwr scs8hd_diode_2
X_238_ _238_/A chany_bottom_out[5] vgnd vpwr scs8hd_buf_2
XANTENNA__146__D _103_/A vgnd vpwr scs8hd_diode_2
Xmux_left_track_11.INVTX1_1_.scs8hd_inv_1 left_top_grid_pin_11_ mux_left_track_11.INVTX1_1_.scs8hd_inv_1/Y
+ vgnd vpwr scs8hd_inv_1
X_169_ _169_/A _169_/B _169_/C _169_/Y vgnd vpwr scs8hd_nor3_4
Xmem_bottom_track_7.LATCH_0_.latch data_in _179_/A _120_/Y vgnd vpwr scs8hd_lpflow_inputisolatch_1
XFILLER_29_46 vgnd vpwr scs8hd_decap_4
XFILLER_28_166 vgnd vpwr scs8hd_decap_12
Xmux_left_track_7.INVTX1_0_.scs8hd_inv_1 chany_bottom_in[2] mux_left_track_7.INVTX1_0_.scs8hd_inv_1/Y
+ vgnd vpwr scs8hd_inv_1
XANTENNA_mux_bottom_track_5.mux_l2_in_0_.TGATE_0_.scs8hd_ebufn_2_A mux_bottom_track_5.mux_l1_in_0_.TGATE_0_.scs8hd_ebufn_2/Z
+ vgnd vpwr scs8hd_diode_2
XFILLER_6_17 vgnd vpwr scs8hd_decap_4
XFILLER_6_28 vgnd vpwr scs8hd_decap_3
XFILLER_6_39 vgnd vpwr scs8hd_decap_4
XFILLER_3_243 vgnd vpwr scs8hd_fill_1
XFILLER_19_166 vgnd vpwr scs8hd_decap_12
XFILLER_42_180 vgnd vpwr scs8hd_decap_6
XANTENNA__157__C _139_/X vgnd vpwr scs8hd_diode_2
XFILLER_40_117 vgnd vpwr scs8hd_decap_12
XFILLER_25_147 vgnd vpwr scs8hd_decap_12
XANTENNA_mux_left_track_9.mux_l2_in_0_.TGATE_0_.scs8hd_ebufn_2_TEB _198_/A vgnd vpwr
+ scs8hd_diode_2
XANTENNA_mux_bottom_track_1.mux_l1_in_0_.TGATE_0_.scs8hd_ebufn_2_A mux_bottom_track_1.INVTX1_0_.scs8hd_inv_1/Y
+ vgnd vpwr scs8hd_diode_2
XFILLER_0_257 vgnd vpwr scs8hd_decap_4
XPHY_120 vgnd vpwr scs8hd_tapvpwrvgnd_1
XPHY_131 vgnd vpwr scs8hd_tapvpwrvgnd_1
XPHY_142 vgnd vpwr scs8hd_tapvpwrvgnd_1
XPHY_153 vgnd vpwr scs8hd_tapvpwrvgnd_1
XFILLER_16_169 vgnd vpwr scs8hd_decap_12
XPHY_164 vgnd vpwr scs8hd_tapvpwrvgnd_1
XPHY_175 vgnd vpwr scs8hd_tapvpwrvgnd_1
XPHY_197 vgnd vpwr scs8hd_tapvpwrvgnd_1
XPHY_186 vgnd vpwr scs8hd_tapvpwrvgnd_1
XPHY_0 vgnd vpwr scs8hd_decap_3
XANTENNA__168__B _169_/B vgnd vpwr scs8hd_diode_2
XANTENNA__184__A _184_/A vgnd vpwr scs8hd_diode_2
XFILLER_7_60 vgnd vpwr scs8hd_fill_1
XFILLER_12_150 vgnd vpwr scs8hd_decap_3
XFILLER_8_165 vgnd vpwr scs8hd_decap_8
XANTENNA__170__C _170_/C vgnd vpwr scs8hd_diode_2
XANTENNA__179__A _179_/A vgnd vpwr scs8hd_diode_2
XFILLER_35_220 vgnd vpwr scs8hd_decap_12
XFILLER_41_245 vgnd vpwr scs8hd_decap_12
XFILLER_5_113 vgnd vpwr scs8hd_decap_3
XANTENNA_mem_left_track_7.LATCH_1_.latch_D data_in vgnd vpwr scs8hd_diode_2
XANTENNA__149__D _109_/A vgnd vpwr scs8hd_diode_2
XFILLER_17_220 vgnd vpwr scs8hd_decap_12
XANTENNA_mux_left_track_1.mux_l2_in_0_.TGATE_0_.scs8hd_ebufn_2_A mux_left_track_1.mux_l1_in_0_.TGATE_0_.scs8hd_ebufn_2/Z
+ vgnd vpwr scs8hd_diode_2
XFILLER_23_245 vgnd vpwr scs8hd_decap_12
XFILLER_2_149 vpwr vgnd scs8hd_fill_2
XFILLER_14_212 vpwr vgnd scs8hd_fill_2
X_185_ _185_/A _185_/Y vgnd vpwr scs8hd_inv_8
XFILLER_13_92 vgnd vpwr scs8hd_fill_1
XFILLER_20_215 vgnd vpwr scs8hd_decap_12
XANTENNA__192__A _192_/A vgnd vpwr scs8hd_diode_2
XFILLER_11_226 vgnd vpwr scs8hd_decap_12
Xmux_bottom_track_15.mux_l2_in_0_.TGATE_0_.scs8hd_ebufn_2 mux_bottom_track_15.mux_l2_in_0_.TGATE_0_.scs8hd_ebufn_2/A
+ _186_/A mux_bottom_track_15.tap_buf4_0_.scs8hd_inv_1/A vgnd vpwr scs8hd_ebufn_2
X_237_ _237_/A chany_bottom_out[6] vgnd vpwr scs8hd_buf_2
XFILLER_6_274 vgnd vpwr scs8hd_fill_1
X_168_ _169_/A _169_/B _170_/C _168_/Y vgnd vpwr scs8hd_nor3_4
XFILLER_27_3 vgnd vpwr scs8hd_decap_3
X_099_ address[4] address[5] _130_/C vgnd vpwr scs8hd_or2_4
XFILLER_37_123 vgnd vpwr scs8hd_decap_12
XFILLER_1_40 vpwr vgnd scs8hd_fill_2
XANTENNA__187__A _187_/A vgnd vpwr scs8hd_diode_2
XFILLER_20_49 vpwr vgnd scs8hd_fill_2
XFILLER_28_178 vgnd vpwr scs8hd_decap_12
XANTENNA__097__A address[3] vgnd vpwr scs8hd_diode_2
Xmem_bottom_track_15.LATCH_0_.latch data_in _187_/A _136_/Y vgnd vpwr scs8hd_lpflow_inputisolatch_1
XANTENNA_mux_bottom_track_13.mux_l2_in_0_.TGATE_0_.scs8hd_ebufn_2_A mux_bottom_track_13.mux_l2_in_0_.TGATE_0_.scs8hd_ebufn_2/A
+ vgnd vpwr scs8hd_diode_2
XFILLER_10_71 vpwr vgnd scs8hd_fill_2
XFILLER_10_93 vpwr vgnd scs8hd_fill_2
XFILLER_19_178 vgnd vpwr scs8hd_decap_4
XANTENNA__157__D _109_/A vgnd vpwr scs8hd_diode_2
XFILLER_40_129 vgnd vpwr scs8hd_decap_12
XFILLER_25_159 vgnd vpwr scs8hd_decap_12
XFILLER_15_38 vpwr vgnd scs8hd_fill_2
XFILLER_0_269 vgnd vpwr scs8hd_decap_8
XFILLER_0_247 vgnd vpwr scs8hd_fill_1
XFILLER_16_104 vgnd vpwr scs8hd_decap_3
XPHY_198 vgnd vpwr scs8hd_tapvpwrvgnd_1
XPHY_187 vgnd vpwr scs8hd_tapvpwrvgnd_1
XPHY_110 vgnd vpwr scs8hd_tapvpwrvgnd_1
XPHY_121 vgnd vpwr scs8hd_tapvpwrvgnd_1
XPHY_132 vgnd vpwr scs8hd_tapvpwrvgnd_1
XPHY_143 vgnd vpwr scs8hd_tapvpwrvgnd_1
XPHY_154 vgnd vpwr scs8hd_tapvpwrvgnd_1
XPHY_165 vgnd vpwr scs8hd_tapvpwrvgnd_1
XPHY_176 vgnd vpwr scs8hd_tapvpwrvgnd_1
Xmux_left_track_5.INVTX1_0_.scs8hd_inv_1 chany_bottom_in[1] mux_left_track_5.INVTX1_0_.scs8hd_inv_1/Y
+ vgnd vpwr scs8hd_inv_1
XPHY_1 vgnd vpwr scs8hd_decap_3
XANTENNA__168__C _170_/C vgnd vpwr scs8hd_diode_2
XFILLER_38_251 vgnd vpwr scs8hd_decap_12
Xmux_bottom_track_17.INVTX1_1_.scs8hd_inv_1 chanx_left_in[0] mux_bottom_track_17.INVTX1_1_.scs8hd_inv_1/Y
+ vgnd vpwr scs8hd_inv_1
XFILLER_21_184 vgnd vpwr scs8hd_decap_12
XANTENNA_mem_bottom_track_5.LATCH_1_.latch_D data_in vgnd vpwr scs8hd_diode_2
XFILLER_3_19 vpwr vgnd scs8hd_fill_2
XFILLER_32_80 vgnd vpwr scs8hd_decap_12
XFILLER_8_188 vgnd vpwr scs8hd_decap_4
XFILLER_35_232 vgnd vpwr scs8hd_decap_12
XANTENNA__195__A _195_/A vgnd vpwr scs8hd_diode_2
Xmux_left_track_1.mux_l2_in_0_.TGATE_1_.scs8hd_ebufn_2 _217_/HI _190_/Y mux_left_track_1.tap_buf4_0_.scs8hd_inv_1/A
+ vgnd vpwr scs8hd_ebufn_2
XFILLER_26_276 vgnd vpwr scs8hd_fill_1
XFILLER_41_257 vgnd vpwr scs8hd_decap_12
XFILLER_5_147 vgnd vpwr scs8hd_decap_4
XFILLER_5_169 vgnd vpwr scs8hd_decap_3
Xmux_bottom_track_5.tap_buf4_0_.scs8hd_inv_1 mux_bottom_track_5.tap_buf4_0_.scs8hd_inv_1/A
+ _241_/A vgnd vpwr scs8hd_inv_1
XFILLER_32_202 vgnd vpwr scs8hd_decap_12
XFILLER_17_232 vgnd vpwr scs8hd_decap_12
XANTENNA_mux_left_track_15.mux_l1_in_0_.TGATE_0_.scs8hd_ebufn_2_A mux_left_track_15.INVTX1_0_.scs8hd_inv_1/Y
+ vgnd vpwr scs8hd_diode_2
XFILLER_23_257 vgnd vpwr scs8hd_decap_12
XFILLER_2_139 vgnd vpwr scs8hd_decap_4
XFILLER_2_106 vpwr vgnd scs8hd_fill_2