* NGSPICE file created from sb_3__0_.ext - technology: EFS8A

* Black-box entry subcircuit for scs8hd_decap_8 abstract view
.subckt scs8hd_decap_8 vgnd vpwr
.ends

* Black-box entry subcircuit for scs8hd_diode_2 abstract view
.subckt scs8hd_diode_2 DIODE vgnd vpwr
.ends

* Black-box entry subcircuit for scs8hd_fill_2 abstract view
.subckt scs8hd_fill_2 vpwr vgnd
.ends

* Black-box entry subcircuit for scs8hd_decap_4 abstract view
.subckt scs8hd_decap_4 vgnd vpwr
.ends

* Black-box entry subcircuit for scs8hd_decap_12 abstract view
.subckt scs8hd_decap_12 vgnd vpwr
.ends

* Black-box entry subcircuit for scs8hd_decap_6 abstract view
.subckt scs8hd_decap_6 vgnd vpwr
.ends

* Black-box entry subcircuit for scs8hd_inv_1 abstract view
.subckt scs8hd_inv_1 A Y vgnd vpwr
.ends

* Black-box entry subcircuit for scs8hd_ebufn_2 abstract view
.subckt scs8hd_ebufn_2 A TEB Z vgnd vpwr
.ends

* Black-box entry subcircuit for scs8hd_inv_8 abstract view
.subckt scs8hd_inv_8 A Y vgnd vpwr
.ends

* Black-box entry subcircuit for scs8hd_nor2_4 abstract view
.subckt scs8hd_nor2_4 A B Y vgnd vpwr
.ends

* Black-box entry subcircuit for scs8hd_buf_1 abstract view
.subckt scs8hd_buf_1 A X vgnd vpwr
.ends

* Black-box entry subcircuit for scs8hd_fill_1 abstract view
.subckt scs8hd_fill_1 vgnd vpwr
.ends

* Black-box entry subcircuit for scs8hd_decap_3 abstract view
.subckt scs8hd_decap_3 vgnd vpwr
.ends

* Black-box entry subcircuit for scs8hd_tapvpwrvgnd_1 abstract view
.subckt scs8hd_tapvpwrvgnd_1 vgnd vpwr
.ends

* Black-box entry subcircuit for scs8hd_lpflow_inputisolatch_1 abstract view
.subckt scs8hd_lpflow_inputisolatch_1 D Q SLEEPB vgnd vpwr
.ends

* Black-box entry subcircuit for scs8hd_or4_4 abstract view
.subckt scs8hd_or4_4 A B C D X vgnd vpwr
.ends

* Black-box entry subcircuit for scs8hd_buf_2 abstract view
.subckt scs8hd_buf_2 A X vgnd vpwr
.ends

* Black-box entry subcircuit for scs8hd_nor3_4 abstract view
.subckt scs8hd_nor3_4 A B C Y vgnd vpwr
.ends

* Black-box entry subcircuit for scs8hd_or2_4 abstract view
.subckt scs8hd_or2_4 A B X vgnd vpwr
.ends

* Black-box entry subcircuit for scs8hd_conb_1 abstract view
.subckt scs8hd_conb_1 HI LO vgnd vpwr
.ends

* Black-box entry subcircuit for scs8hd_nand2_4 abstract view
.subckt scs8hd_nand2_4 A B Y vgnd vpwr
.ends

.subckt sb_3__0_ address[0] address[1] address[2] address[3] address[4] address[5]
+ chanx_left_in[0] chanx_left_in[1] chanx_left_in[2] chanx_left_in[3] chanx_left_in[4]
+ chanx_left_in[5] chanx_left_in[6] chanx_left_in[7] chanx_left_in[8] chanx_left_out[0]
+ chanx_left_out[1] chanx_left_out[2] chanx_left_out[3] chanx_left_out[4] chanx_left_out[5]
+ chanx_left_out[6] chanx_left_out[7] chanx_left_out[8] chany_top_in[0] chany_top_in[1]
+ chany_top_in[2] chany_top_in[3] chany_top_in[4] chany_top_in[5] chany_top_in[6]
+ chany_top_in[7] chany_top_in[8] chany_top_out[0] chany_top_out[1] chany_top_out[2]
+ chany_top_out[3] chany_top_out[4] chany_top_out[5] chany_top_out[6] chany_top_out[7]
+ chany_top_out[8] data_in enable left_bottom_grid_pin_11_ left_bottom_grid_pin_13_
+ left_bottom_grid_pin_15_ left_bottom_grid_pin_1_ left_bottom_grid_pin_3_ left_bottom_grid_pin_5_
+ left_bottom_grid_pin_7_ left_bottom_grid_pin_9_ left_top_grid_pin_10_ top_left_grid_pin_13_
+ top_right_grid_pin_11_ top_right_grid_pin_13_ top_right_grid_pin_15_ top_right_grid_pin_1_
+ top_right_grid_pin_3_ top_right_grid_pin_5_ top_right_grid_pin_7_ top_right_grid_pin_9_
+ vpwr vgnd
XFILLER_39_266 vgnd vpwr scs8hd_decap_8
XANTENNA_mem_top_track_2.LATCH_1_.latch_SLEEPB _111_/Y vgnd vpwr scs8hd_diode_2
XFILLER_7_7 vpwr vgnd scs8hd_fill_2
XFILLER_26_74 vpwr vgnd scs8hd_fill_2
XFILLER_26_96 vgnd vpwr scs8hd_decap_4
XFILLER_42_84 vgnd vpwr scs8hd_decap_8
XFILLER_9_159 vgnd vpwr scs8hd_decap_12
XFILLER_9_115 vgnd vpwr scs8hd_decap_6
XFILLER_36_203 vgnd vpwr scs8hd_decap_8
Xmux_top_track_8.INVTX1_0_.scs8hd_inv_1 top_right_grid_pin_7_ mux_top_track_8.INVTX1_0_.scs8hd_inv_1/Y
+ vgnd vpwr scs8hd_inv_1
XANTENNA_mux_left_track_9.mux_l2_in_0_.TGATE_1_.scs8hd_ebufn_2_A _216_/HI vgnd vpwr
+ scs8hd_diode_2
XFILLER_27_269 vgnd vpwr scs8hd_decap_8
XFILLER_6_129 vgnd vpwr scs8hd_decap_12
XFILLER_12_21 vpwr vgnd scs8hd_fill_2
XFILLER_12_32 vpwr vgnd scs8hd_fill_2
XANTENNA_mem_top_track_16.LATCH_0_.latch_SLEEPB _142_/Y vgnd vpwr scs8hd_diode_2
XFILLER_37_62 vpwr vgnd scs8hd_fill_2
XFILLER_37_95 vpwr vgnd scs8hd_fill_2
XFILLER_33_239 vgnd vpwr scs8hd_decap_4
XANTENNA__108__B enable vgnd vpwr scs8hd_diode_2
XANTENNA__124__A _127_/A vgnd vpwr scs8hd_diode_2
XFILLER_5_184 vgnd vpwr scs8hd_decap_12
XFILLER_24_206 vgnd vpwr scs8hd_decap_8
XFILLER_24_239 vgnd vpwr scs8hd_decap_12
XANTENNA_mux_left_track_5.mux_l1_in_0_.TGATE_1_.scs8hd_ebufn_2_A mux_left_track_5.INVTX1_1_.scs8hd_inv_1/Y
+ vgnd vpwr scs8hd_diode_2
Xmux_left_track_1.mux_l2_in_0_.TGATE_0_.scs8hd_ebufn_2 mux_left_track_1.mux_l1_in_0_.TGATE_0_.scs8hd_ebufn_2/Z
+ _190_/A mux_left_track_1.tap_buf4_0_.scs8hd_inv_1/A vgnd vpwr scs8hd_ebufn_2
XFILLER_30_209 vgnd vpwr scs8hd_decap_4
X_200_ _200_/A _200_/Y vgnd vpwr scs8hd_inv_8
XANTENNA_mux_left_track_3.INVTX1_1_.scs8hd_inv_1_A left_bottom_grid_pin_1_ vgnd vpwr
+ scs8hd_diode_2
XFILLER_23_53 vpwr vgnd scs8hd_fill_2
X_131_ _129_/X _133_/B _131_/Y vgnd vpwr scs8hd_nor2_4
XFILLER_2_154 vgnd vpwr scs8hd_decap_12
XANTENNA__110__C _118_/C vgnd vpwr scs8hd_diode_2
XANTENNA__119__A _127_/A vgnd vpwr scs8hd_diode_2
XANTENNA_mem_top_track_16.LATCH_1_.latch_D data_in vgnd vpwr scs8hd_diode_2
XFILLER_18_86 vgnd vpwr scs8hd_decap_4
XFILLER_11_220 vgnd vpwr scs8hd_decap_12
XFILLER_7_257 vgnd vpwr scs8hd_decap_12
XANTENNA_mux_left_track_15.mux_l2_in_0_.TGATE_1_.scs8hd_ebufn_2_TEB _204_/Y vgnd vpwr
+ scs8hd_diode_2
X_114_ _114_/A _118_/B vgnd vpwr scs8hd_buf_1
XFILLER_38_106 vpwr vgnd scs8hd_fill_2
XFILLER_22_7 vgnd vpwr scs8hd_fill_1
Xmux_top_track_0.mux_l2_in_0_.TGATE_1_.scs8hd_ebufn_2 _217_/HI _172_/Y mux_top_track_0.tap_buf4_0_.scs8hd_inv_1/A
+ vgnd vpwr scs8hd_ebufn_2
XANTENNA_mem_top_track_6.LATCH_1_.latch_D data_in vgnd vpwr scs8hd_diode_2
XFILLER_37_172 vpwr vgnd scs8hd_fill_2
XFILLER_4_227 vgnd vpwr scs8hd_decap_12
XFILLER_20_10 vgnd vpwr scs8hd_decap_4
XFILLER_20_32 vgnd vpwr scs8hd_decap_8
XFILLER_20_76 vpwr vgnd scs8hd_fill_2
Xmux_left_track_5.mux_l2_in_0_.TGATE_1_.scs8hd_ebufn_2 _214_/HI _194_/Y mux_left_track_5.tap_buf4_0_.scs8hd_inv_1/A
+ vgnd vpwr scs8hd_ebufn_2
XANTENNA_mem_left_track_11.LATCH_0_.latch_D data_in vgnd vpwr scs8hd_diode_2
XANTENNA__116__B _116_/B vgnd vpwr scs8hd_diode_2
XFILLER_6_56 vgnd vpwr scs8hd_decap_12
XANTENNA__132__A address[0] vgnd vpwr scs8hd_diode_2
XANTENNA_mem_top_track_14.LATCH_1_.latch_SLEEPB _135_/Y vgnd vpwr scs8hd_diode_2
XFILLER_34_142 vgnd vpwr scs8hd_decap_8
XFILLER_1_208 vgnd vpwr scs8hd_decap_12
XFILLER_15_21 vpwr vgnd scs8hd_fill_2
XFILLER_25_175 vgnd vpwr scs8hd_decap_6
XFILLER_31_31 vgnd vpwr scs8hd_decap_3
XFILLER_25_197 vgnd vpwr scs8hd_fill_1
XFILLER_0_230 vgnd vpwr scs8hd_decap_12
XANTENNA__127__A _127_/A vgnd vpwr scs8hd_diode_2
XPHY_170 vgnd vpwr scs8hd_tapvpwrvgnd_1
XPHY_181 vgnd vpwr scs8hd_tapvpwrvgnd_1
XPHY_192 vgnd vpwr scs8hd_tapvpwrvgnd_1
XFILLER_39_223 vpwr vgnd scs8hd_fill_2
XFILLER_39_212 vpwr vgnd scs8hd_fill_2
XFILLER_39_245 vgnd vpwr scs8hd_decap_8
XFILLER_22_123 vpwr vgnd scs8hd_fill_2
Xmem_top_track_4.LATCH_0_.latch data_in _177_/A _117_/Y vgnd vpwr scs8hd_lpflow_inputisolatch_1
XFILLER_13_123 vpwr vgnd scs8hd_fill_2
XFILLER_26_86 vgnd vpwr scs8hd_decap_3
XFILLER_42_63 vgnd vpwr scs8hd_decap_12
XFILLER_36_215 vgnd vpwr scs8hd_decap_12
XFILLER_27_204 vgnd vpwr scs8hd_decap_12
XFILLER_42_218 vgnd vpwr scs8hd_decap_12
XFILLER_12_11 vgnd vpwr scs8hd_fill_1
XFILLER_12_55 vgnd vpwr scs8hd_fill_1
XANTENNA__230__A _230_/A vgnd vpwr scs8hd_diode_2
Xmux_left_track_13.tap_buf4_0_.scs8hd_inv_1 mux_left_track_13.tap_buf4_0_.scs8hd_inv_1/A
+ _228_/A vgnd vpwr scs8hd_inv_1
XFILLER_18_215 vgnd vpwr scs8hd_decap_12
XANTENNA_mux_left_track_17.mux_l2_in_0_.TGATE_0_.scs8hd_ebufn_2_TEB _206_/A vgnd vpwr
+ scs8hd_diode_2
XANTENNA__124__B _125_/B vgnd vpwr scs8hd_diode_2
XFILLER_5_196 vgnd vpwr scs8hd_decap_12
XANTENNA__140__A _118_/A vgnd vpwr scs8hd_diode_2
XANTENNA_mux_top_track_0.INVTX1_0_.scs8hd_inv_1_A top_left_grid_pin_13_ vgnd vpwr
+ scs8hd_diode_2
XFILLER_32_251 vgnd vpwr scs8hd_decap_12
Xmux_top_track_6.INVTX1_0_.scs8hd_inv_1 top_right_grid_pin_5_ mux_top_track_6.INVTX1_0_.scs8hd_inv_1/Y
+ vgnd vpwr scs8hd_inv_1
XANTENNA_mux_left_track_9.INVTX1_0_.scs8hd_inv_1_A chany_top_in[5] vgnd vpwr scs8hd_diode_2
XANTENNA_mux_top_track_4.INVTX1_1_.scs8hd_inv_1_A chanx_left_in[7] vgnd vpwr scs8hd_diode_2
X_130_ _134_/A _118_/B _100_/A _104_/D _133_/B vgnd vpwr scs8hd_or4_4
XFILLER_23_76 vpwr vgnd scs8hd_fill_2
XANTENNA__110__D _109_/X vgnd vpwr scs8hd_diode_2
XFILLER_2_166 vgnd vpwr scs8hd_decap_12
XANTENNA__119__B _119_/B vgnd vpwr scs8hd_diode_2
XANTENNA_mux_left_track_5.tap_buf4_0_.scs8hd_inv_1_A mux_left_track_5.tap_buf4_0_.scs8hd_inv_1/A
+ vgnd vpwr scs8hd_diode_2
XFILLER_14_251 vgnd vpwr scs8hd_decap_12
XANTENNA__135__A _129_/X vgnd vpwr scs8hd_diode_2
XFILLER_20_276 vgnd vpwr scs8hd_fill_1
Xmux_left_track_5.tap_buf4_0_.scs8hd_inv_1 mux_left_track_5.tap_buf4_0_.scs8hd_inv_1/A
+ _232_/A vgnd vpwr scs8hd_inv_1
XFILLER_18_10 vpwr vgnd scs8hd_fill_2
XFILLER_18_32 vgnd vpwr scs8hd_decap_4
XFILLER_18_98 vgnd vpwr scs8hd_decap_3
XANTENNA_mux_left_track_7.mux_l1_in_0_.TGATE_1_.scs8hd_ebufn_2_TEB _197_/Y vgnd vpwr
+ scs8hd_diode_2
XFILLER_11_232 vgnd vpwr scs8hd_decap_12
X_113_ address[2] _114_/A vgnd vpwr scs8hd_inv_8
XFILLER_7_269 vgnd vpwr scs8hd_decap_8
XANTENNA_mem_left_track_1.LATCH_0_.latch_SLEEPB _145_/Y vgnd vpwr scs8hd_diode_2
XFILLER_38_129 vgnd vpwr scs8hd_decap_6
Xmux_top_track_6.tap_buf4_0_.scs8hd_inv_1 mux_top_track_6.tap_buf4_0_.scs8hd_inv_1/A
+ _240_/A vgnd vpwr scs8hd_inv_1
XFILLER_4_239 vgnd vpwr scs8hd_decap_12
XFILLER_20_55 vgnd vpwr scs8hd_decap_8
XFILLER_20_88 vpwr vgnd scs8hd_fill_2
XFILLER_29_20 vpwr vgnd scs8hd_fill_2
XFILLER_6_79 vgnd vpwr scs8hd_decap_12
XFILLER_6_68 vpwr vgnd scs8hd_fill_2
Xmux_left_track_3.mux_l1_in_0_.TGATE_0_.scs8hd_ebufn_2 mux_left_track_3.INVTX1_0_.scs8hd_inv_1/Y
+ _193_/A mux_left_track_3.mux_l1_in_0_.TGATE_0_.scs8hd_ebufn_2/Z vgnd vpwr scs8hd_ebufn_2
XFILLER_19_151 vgnd vpwr scs8hd_decap_12
XFILLER_19_184 vgnd vpwr scs8hd_decap_12
XFILLER_34_165 vpwr vgnd scs8hd_fill_2
Xmem_left_track_5.LATCH_1_.latch data_in _194_/A _150_/Y vgnd vpwr scs8hd_lpflow_inputisolatch_1
XANTENNA_mux_top_track_16.mux_l1_in_0_.TGATE_1_.scs8hd_ebufn_2_TEB _189_/Y vgnd vpwr
+ scs8hd_diode_2
XFILLER_40_102 vgnd vpwr scs8hd_decap_8
XFILLER_15_55 vgnd vpwr scs8hd_decap_4
XFILLER_25_110 vpwr vgnd scs8hd_fill_2
XFILLER_25_187 vpwr vgnd scs8hd_fill_2
XANTENNA__233__A _233_/A vgnd vpwr scs8hd_diode_2
XFILLER_0_242 vgnd vpwr scs8hd_decap_6
XANTENNA__127__B _127_/B vgnd vpwr scs8hd_diode_2
XFILLER_31_179 vpwr vgnd scs8hd_fill_2
Xmux_left_track_17.INVTX1_1_.scs8hd_inv_1 left_bottom_grid_pin_15_ mux_left_track_17.INVTX1_1_.scs8hd_inv_1/Y
+ vgnd vpwr scs8hd_inv_1
XPHY_160 vgnd vpwr scs8hd_tapvpwrvgnd_1
XFILLER_16_154 vgnd vpwr scs8hd_decap_12
XPHY_171 vgnd vpwr scs8hd_tapvpwrvgnd_1
XPHY_182 vgnd vpwr scs8hd_tapvpwrvgnd_1
XPHY_193 vgnd vpwr scs8hd_tapvpwrvgnd_1
XANTENNA__143__A _118_/A vgnd vpwr scs8hd_diode_2
XFILLER_22_102 vpwr vgnd scs8hd_fill_2
Xmux_top_track_2.mux_l1_in_0_.TGATE_1_.scs8hd_ebufn_2 mux_top_track_2.INVTX1_1_.scs8hd_inv_1/Y
+ _175_/Y mux_top_track_2.mux_l1_in_0_.TGATE_0_.scs8hd_ebufn_2/Z vgnd vpwr scs8hd_ebufn_2
XANTENNA__228__A _228_/A vgnd vpwr scs8hd_diode_2
XANTENNA_mem_left_track_1.LATCH_0_.latch_D data_in vgnd vpwr scs8hd_diode_2
XFILLER_42_97 vgnd vpwr scs8hd_decap_8
XFILLER_42_75 vgnd vpwr scs8hd_decap_6
XFILLER_36_227 vgnd vpwr scs8hd_decap_12
XANTENNA__138__A address[4] vgnd vpwr scs8hd_diode_2
XFILLER_12_190 vgnd vpwr scs8hd_decap_12
Xmux_left_track_7.mux_l1_in_0_.TGATE_1_.scs8hd_ebufn_2 mux_left_track_7.INVTX1_1_.scs8hd_inv_1/Y
+ _197_/Y mux_left_track_7.mux_l2_in_0_.TGATE_0_.scs8hd_ebufn_2/A vgnd vpwr scs8hd_ebufn_2
XFILLER_27_216 vgnd vpwr scs8hd_decap_12
XFILLER_10_105 vgnd vpwr scs8hd_decap_12
XFILLER_5_6 vpwr vgnd scs8hd_fill_2
XANTENNA_mux_left_track_9.mux_l1_in_0_.TGATE_0_.scs8hd_ebufn_2_TEB _199_/A vgnd vpwr
+ scs8hd_diode_2
XFILLER_18_227 vgnd vpwr scs8hd_decap_12
XFILLER_38_6 vgnd vpwr scs8hd_decap_8
XANTENNA__140__B _104_/B vgnd vpwr scs8hd_diode_2
XFILLER_32_263 vgnd vpwr scs8hd_decap_12
XFILLER_15_208 vgnd vpwr scs8hd_decap_12
XANTENNA__241__A _241_/A vgnd vpwr scs8hd_diode_2
XFILLER_3_3 vpwr vgnd scs8hd_fill_2
XFILLER_23_99 vpwr vgnd scs8hd_fill_2
XFILLER_2_178 vgnd vpwr scs8hd_decap_12
XFILLER_9_24 vpwr vgnd scs8hd_fill_2
XFILLER_14_263 vgnd vpwr scs8hd_decap_12
XFILLER_9_79 vgnd vpwr scs8hd_decap_12
XFILLER_9_57 vpwr vgnd scs8hd_fill_2
X_189_ _189_/A _189_/Y vgnd vpwr scs8hd_inv_8
XANTENNA__135__B _135_/B vgnd vpwr scs8hd_diode_2
XFILLER_36_3 vgnd vpwr scs8hd_decap_6
XANTENNA__151__A _133_/A vgnd vpwr scs8hd_diode_2
XANTENNA_mux_top_track_2.mux_l1_in_0_.TGATE_1_.scs8hd_ebufn_2_TEB _175_/Y vgnd vpwr
+ scs8hd_diode_2
XFILLER_34_54 vpwr vgnd scs8hd_fill_2
XFILLER_34_32 vgnd vpwr scs8hd_decap_4
X_112_ _125_/A _112_/B _112_/Y vgnd vpwr scs8hd_nor2_4
XANTENNA__236__A _236_/A vgnd vpwr scs8hd_diode_2
XFILLER_34_65 vpwr vgnd scs8hd_fill_2
Xmux_top_track_4.INVTX1_0_.scs8hd_inv_1 top_right_grid_pin_3_ mux_top_track_4.INVTX1_0_.scs8hd_inv_1/Y
+ vgnd vpwr scs8hd_inv_1
XFILLER_38_119 vgnd vpwr scs8hd_decap_4
XANTENNA__146__A address[3] vgnd vpwr scs8hd_diode_2
XFILLER_37_152 vgnd vpwr scs8hd_decap_4
XFILLER_20_23 vgnd vpwr scs8hd_decap_8
XFILLER_20_6 vpwr vgnd scs8hd_fill_2
XFILLER_34_111 vpwr vgnd scs8hd_fill_2
XFILLER_19_163 vgnd vpwr scs8hd_decap_12
XFILLER_19_196 vgnd vpwr scs8hd_decap_12
XFILLER_40_147 vgnd vpwr scs8hd_decap_6
XFILLER_40_136 vpwr vgnd scs8hd_fill_2
XFILLER_40_125 vpwr vgnd scs8hd_fill_2
XFILLER_15_34 vpwr vgnd scs8hd_fill_2
XFILLER_15_89 vgnd vpwr scs8hd_decap_6
XFILLER_25_133 vpwr vgnd scs8hd_fill_2
XFILLER_31_99 vpwr vgnd scs8hd_fill_2
XFILLER_31_77 vgnd vpwr scs8hd_fill_1
XFILLER_16_166 vgnd vpwr scs8hd_decap_12
XFILLER_31_136 vpwr vgnd scs8hd_fill_2
XFILLER_31_114 vpwr vgnd scs8hd_fill_2
XPHY_150 vgnd vpwr scs8hd_tapvpwrvgnd_1
XPHY_161 vgnd vpwr scs8hd_tapvpwrvgnd_1
XPHY_172 vgnd vpwr scs8hd_tapvpwrvgnd_1
XPHY_183 vgnd vpwr scs8hd_tapvpwrvgnd_1
XPHY_194 vgnd vpwr scs8hd_tapvpwrvgnd_1
XANTENNA__143__B _104_/B vgnd vpwr scs8hd_diode_2
XFILLER_39_258 vpwr vgnd scs8hd_fill_2
XFILLER_22_136 vgnd vpwr scs8hd_decap_4
XANTENNA_mux_top_track_12.mux_l2_in_0_.TGATE_0_.scs8hd_ebufn_2_A mux_top_track_12.mux_l2_in_0_.TGATE_0_.scs8hd_ebufn_2/A
+ vgnd vpwr scs8hd_diode_2
XFILLER_42_32 vgnd vpwr scs8hd_decap_12
XFILLER_13_114 vpwr vgnd scs8hd_fill_2
XFILLER_36_239 vgnd vpwr scs8hd_decap_12
XANTENNA__138__B _138_/B vgnd vpwr scs8hd_diode_2
XANTENNA__154__A _152_/X vgnd vpwr scs8hd_diode_2
XANTENNA_mux_top_track_4.mux_l1_in_0_.TGATE_0_.scs8hd_ebufn_2_TEB _177_/A vgnd vpwr
+ scs8hd_diode_2
XANTENNA_mux_left_track_17.mux_l2_in_0_.TGATE_0_.scs8hd_ebufn_2_A mux_left_track_17.mux_l1_in_0_.TGATE_1_.scs8hd_ebufn_2/Z
+ vgnd vpwr scs8hd_diode_2
Xmux_left_track_15.INVTX1_1_.scs8hd_inv_1 left_bottom_grid_pin_13_ mux_left_track_15.INVTX1_1_.scs8hd_inv_1/Y
+ vgnd vpwr scs8hd_inv_1
XFILLER_27_228 vgnd vpwr scs8hd_decap_12
XFILLER_10_117 vgnd vpwr scs8hd_decap_12
XFILLER_37_32 vgnd vpwr scs8hd_decap_12
XFILLER_37_21 vpwr vgnd scs8hd_fill_2
XFILLER_37_10 vpwr vgnd scs8hd_fill_2
XFILLER_41_220 vgnd vpwr scs8hd_decap_12
XANTENNA__239__A _239_/A vgnd vpwr scs8hd_diode_2
XANTENNA_mux_top_track_8.mux_l2_in_0_.TGATE_1_.scs8hd_ebufn_2_A _225_/HI vgnd vpwr
+ scs8hd_diode_2
XFILLER_37_76 vpwr vgnd scs8hd_fill_2
XFILLER_18_239 vgnd vpwr scs8hd_decap_12
Xmem_top_track_0.LATCH_0_.latch data_in _173_/A _107_/Y vgnd vpwr scs8hd_lpflow_inputisolatch_1
Xmem_left_track_15.LATCH_0_.latch data_in _205_/A _169_/Y vgnd vpwr scs8hd_lpflow_inputisolatch_1
XANTENNA__140__C _143_/C vgnd vpwr scs8hd_diode_2
XANTENNA__149__A address[3] vgnd vpwr scs8hd_diode_2
XANTENNA_mux_left_track_13.mux_l1_in_0_.TGATE_0_.scs8hd_ebufn_2_A mux_left_track_13.INVTX1_0_.scs8hd_inv_1/Y
+ vgnd vpwr scs8hd_diode_2
XFILLER_4_80 vgnd vpwr scs8hd_decap_12
XFILLER_23_220 vgnd vpwr scs8hd_decap_12
XANTENNA_mem_left_track_13.LATCH_0_.latch_SLEEPB _165_/Y vgnd vpwr scs8hd_diode_2
XFILLER_23_34 vpwr vgnd scs8hd_fill_2
XANTENNA_mux_top_track_4.mux_l1_in_0_.TGATE_1_.scs8hd_ebufn_2_A mux_top_track_4.INVTX1_1_.scs8hd_inv_1/Y
+ vgnd vpwr scs8hd_diode_2
XFILLER_9_47 vgnd vpwr scs8hd_decap_8
XFILLER_9_36 vgnd vpwr scs8hd_decap_4
X_188_ _188_/A _188_/Y vgnd vpwr scs8hd_inv_8
XANTENNA__151__B _149_/X vgnd vpwr scs8hd_diode_2
XFILLER_29_3 vpwr vgnd scs8hd_fill_2
XFILLER_18_23 vgnd vpwr scs8hd_decap_6
XFILLER_18_56 vpwr vgnd scs8hd_fill_2
X_111_ _127_/A _112_/B _111_/Y vgnd vpwr scs8hd_nor2_4
XFILLER_11_245 vgnd vpwr scs8hd_decap_12
XANTENNA__146__B _118_/B vgnd vpwr scs8hd_diode_2
XANTENNA__162__A _155_/X vgnd vpwr scs8hd_diode_2
XFILLER_29_33 vgnd vpwr scs8hd_decap_3
XFILLER_29_99 vpwr vgnd scs8hd_fill_2
XFILLER_28_186 vgnd vpwr scs8hd_decap_4
XFILLER_29_55 vgnd vpwr scs8hd_decap_4
XFILLER_29_66 vgnd vpwr scs8hd_fill_1
XANTENNA__157__A _134_/A vgnd vpwr scs8hd_diode_2
XFILLER_19_175 vgnd vpwr scs8hd_decap_8
Xmux_top_track_2.INVTX1_0_.scs8hd_inv_1 top_right_grid_pin_1_ mux_top_track_2.INVTX1_0_.scs8hd_inv_1/Y
+ vgnd vpwr scs8hd_inv_1
XFILLER_25_123 vgnd vpwr scs8hd_fill_1
XFILLER_0_211 vgnd vpwr scs8hd_decap_6
XFILLER_16_112 vgnd vpwr scs8hd_decap_4
XFILLER_16_178 vgnd vpwr scs8hd_decap_12
XFILLER_31_159 vpwr vgnd scs8hd_fill_2
XPHY_140 vgnd vpwr scs8hd_tapvpwrvgnd_1
XPHY_151 vgnd vpwr scs8hd_tapvpwrvgnd_1
XPHY_162 vgnd vpwr scs8hd_tapvpwrvgnd_1
XANTENNA_mem_left_track_11.LATCH_1_.latch_SLEEPB _161_/Y vgnd vpwr scs8hd_diode_2
XPHY_173 vgnd vpwr scs8hd_tapvpwrvgnd_1
XPHY_184 vgnd vpwr scs8hd_tapvpwrvgnd_1
XPHY_195 vgnd vpwr scs8hd_tapvpwrvgnd_1
XANTENNA__143__C _143_/C vgnd vpwr scs8hd_diode_2
XFILLER_39_204 vgnd vpwr scs8hd_decap_4
Xmux_left_track_3.mux_l2_in_0_.TGATE_1_.scs8hd_ebufn_2 _213_/HI _192_/Y mux_left_track_3.tap_buf4_0_.scs8hd_inv_1/A
+ vgnd vpwr scs8hd_ebufn_2
Xmem_left_track_1.LATCH_1_.latch data_in _190_/A _144_/Y vgnd vpwr scs8hd_lpflow_inputisolatch_1
XANTENNA_mux_left_track_17.mux_l1_in_0_.TGATE_1_.scs8hd_ebufn_2_TEB _207_/Y vgnd vpwr
+ scs8hd_diode_2
XANTENNA_mux_left_track_11.INVTX1_1_.scs8hd_inv_1_A left_bottom_grid_pin_9_ vgnd vpwr
+ scs8hd_diode_2
XFILLER_26_23 vpwr vgnd scs8hd_fill_2
XFILLER_26_78 vpwr vgnd scs8hd_fill_2
XFILLER_42_44 vgnd vpwr scs8hd_decap_12
XFILLER_8_141 vgnd vpwr scs8hd_decap_12
XANTENNA__154__B _156_/B vgnd vpwr scs8hd_diode_2
XANTENNA__170__A _109_/X vgnd vpwr scs8hd_diode_2
XFILLER_10_129 vgnd vpwr scs8hd_decap_12
XFILLER_12_25 vpwr vgnd scs8hd_fill_2
XFILLER_12_47 vgnd vpwr scs8hd_decap_8
XFILLER_12_69 vpwr vgnd scs8hd_fill_2
XFILLER_37_66 vgnd vpwr scs8hd_decap_3
XFILLER_37_44 vgnd vpwr scs8hd_decap_12
XFILLER_41_232 vgnd vpwr scs8hd_decap_12
XFILLER_37_99 vgnd vpwr scs8hd_decap_4
XFILLER_26_251 vgnd vpwr scs8hd_decap_12
XFILLER_5_111 vgnd vpwr scs8hd_decap_8
XANTENNA__140__D _140_/D vgnd vpwr scs8hd_diode_2
XANTENNA__149__B _118_/B vgnd vpwr scs8hd_diode_2
XFILLER_32_276 vgnd vpwr scs8hd_fill_1
XANTENNA__165__A _155_/X vgnd vpwr scs8hd_diode_2
XANTENNA_mux_left_track_7.mux_l1_in_0_.TGATE_1_.scs8hd_ebufn_2_A mux_left_track_7.INVTX1_1_.scs8hd_inv_1/Y
+ vgnd vpwr scs8hd_diode_2
XFILLER_23_232 vgnd vpwr scs8hd_decap_12
XANTENNA_mem_top_track_8.LATCH_0_.latch_D data_in vgnd vpwr scs8hd_diode_2
XFILLER_23_13 vpwr vgnd scs8hd_fill_2
XFILLER_23_57 vpwr vgnd scs8hd_fill_2
Xmux_left_track_13.INVTX1_1_.scs8hd_inv_1 left_bottom_grid_pin_11_ mux_left_track_13.INVTX1_1_.scs8hd_inv_1/Y
+ vgnd vpwr scs8hd_inv_1
XFILLER_0_17 vpwr vgnd scs8hd_fill_2
XFILLER_14_276 vgnd vpwr scs8hd_fill_1
X_187_ _187_/A _187_/Y vgnd vpwr scs8hd_inv_8
Xmux_left_track_9.INVTX1_0_.scs8hd_inv_1 chany_top_in[5] mux_left_track_9.INVTX1_0_.scs8hd_inv_1/Y
+ vgnd vpwr scs8hd_inv_1
XFILLER_20_213 vgnd vpwr scs8hd_fill_1
X_110_ _118_/A _104_/B _118_/C _109_/X _112_/B vgnd vpwr scs8hd_or4_4
XFILLER_11_257 vgnd vpwr scs8hd_decap_12
X_239_ _239_/A chany_top_out[4] vgnd vpwr scs8hd_buf_2
XANTENNA__146__C _143_/C vgnd vpwr scs8hd_diode_2
XFILLER_41_3 vgnd vpwr scs8hd_decap_12
XANTENNA__162__B _160_/X vgnd vpwr scs8hd_diode_2
XFILLER_37_132 vgnd vpwr scs8hd_decap_4
XFILLER_37_187 vpwr vgnd scs8hd_fill_2
XFILLER_37_176 vgnd vpwr scs8hd_decap_6
XANTENNA_mux_top_track_16.tap_buf4_0_.scs8hd_inv_1_A mux_top_track_16.tap_buf4_0_.scs8hd_inv_1/A
+ vgnd vpwr scs8hd_diode_2
XFILLER_29_78 vpwr vgnd scs8hd_fill_2
XFILLER_28_110 vgnd vpwr scs8hd_fill_1
XFILLER_28_132 vpwr vgnd scs8hd_fill_2
XFILLER_28_165 vgnd vpwr scs8hd_decap_8
XFILLER_3_220 vgnd vpwr scs8hd_decap_12
XFILLER_10_80 vgnd vpwr scs8hd_decap_12
XFILLER_13_7 vpwr vgnd scs8hd_fill_2
XFILLER_19_110 vgnd vpwr scs8hd_decap_3
XFILLER_19_132 vpwr vgnd scs8hd_fill_2
XFILLER_19_143 vpwr vgnd scs8hd_fill_2
XANTENNA__157__B address[2] vgnd vpwr scs8hd_diode_2
XANTENNA_mux_left_track_11.mux_l2_in_0_.TGATE_1_.scs8hd_ebufn_2_A _209_/HI vgnd vpwr
+ scs8hd_diode_2
XANTENNA__173__A _173_/A vgnd vpwr scs8hd_diode_2
XANTENNA_mem_left_track_9.LATCH_1_.latch_SLEEPB _158_/Y vgnd vpwr scs8hd_diode_2
XFILLER_15_47 vpwr vgnd scs8hd_fill_2
XFILLER_31_57 vpwr vgnd scs8hd_fill_2
XPHY_130 vgnd vpwr scs8hd_tapvpwrvgnd_1
XPHY_141 vgnd vpwr scs8hd_tapvpwrvgnd_1
XPHY_152 vgnd vpwr scs8hd_tapvpwrvgnd_1
XPHY_163 vgnd vpwr scs8hd_tapvpwrvgnd_1
XPHY_174 vgnd vpwr scs8hd_tapvpwrvgnd_1
XPHY_185 vgnd vpwr scs8hd_tapvpwrvgnd_1
XPHY_196 vgnd vpwr scs8hd_tapvpwrvgnd_1
XANTENNA_mem_left_track_17.LATCH_1_.latch_D data_in vgnd vpwr scs8hd_diode_2
XANTENNA__143__D _109_/A vgnd vpwr scs8hd_diode_2
XFILLER_39_216 vgnd vpwr scs8hd_decap_4
XFILLER_39_227 vgnd vpwr scs8hd_decap_12
XANTENNA__168__A _104_/D vgnd vpwr scs8hd_diode_2
Xmux_left_track_1.mux_l1_in_0_.TGATE_0_.scs8hd_ebufn_2 mux_left_track_1.INVTX1_0_.scs8hd_inv_1/Y
+ _191_/A mux_left_track_1.mux_l1_in_0_.TGATE_0_.scs8hd_ebufn_2/Z vgnd vpwr scs8hd_ebufn_2
XFILLER_7_81 vgnd vpwr scs8hd_decap_12
XANTENNA_mux_left_track_17.INVTX1_0_.scs8hd_inv_1_A chany_top_in[1] vgnd vpwr scs8hd_diode_2
Xmux_top_track_0.INVTX1_0_.scs8hd_inv_1 top_left_grid_pin_13_ mux_top_track_0.INVTX1_0_.scs8hd_inv_1/Y
+ vgnd vpwr scs8hd_inv_1
XFILLER_13_127 vgnd vpwr scs8hd_decap_12
XFILLER_26_57 vgnd vpwr scs8hd_decap_8
XFILLER_42_56 vgnd vpwr scs8hd_decap_6
XFILLER_21_160 vpwr vgnd scs8hd_fill_2
XFILLER_21_171 vgnd vpwr scs8hd_decap_12
XANTENNA_mux_top_track_12.INVTX1_1_.scs8hd_inv_1_A chanx_left_in[3] vgnd vpwr scs8hd_diode_2
XANTENNA__170__B _168_/B vgnd vpwr scs8hd_diode_2
XFILLER_37_89 vgnd vpwr scs8hd_decap_4
XFILLER_37_56 vgnd vpwr scs8hd_decap_4
XANTENNA_mux_left_track_7.mux_l2_in_0_.TGATE_1_.scs8hd_ebufn_2_TEB _196_/Y vgnd vpwr
+ scs8hd_diode_2
XFILLER_26_263 vgnd vpwr scs8hd_decap_12
Xmem_top_track_8.LATCH_1_.latch data_in _180_/A _124_/Y vgnd vpwr scs8hd_lpflow_inputisolatch_1
XFILLER_5_123 vgnd vpwr scs8hd_decap_12
XFILLER_32_200 vgnd vpwr scs8hd_decap_12
Xmux_top_track_0.mux_l1_in_0_.TGATE_1_.scs8hd_ebufn_2 mux_top_track_0.INVTX1_1_.scs8hd_inv_1/Y
+ _173_/Y mux_top_track_0.mux_l2_in_0_.TGATE_0_.scs8hd_ebufn_2/A vgnd vpwr scs8hd_ebufn_2
XANTENNA__149__C _143_/C vgnd vpwr scs8hd_diode_2
XANTENNA__165__B _164_/B vgnd vpwr scs8hd_diode_2
XANTENNA__181__A _181_/A vgnd vpwr scs8hd_diode_2
XFILLER_4_93 vgnd vpwr scs8hd_decap_12
Xmux_left_track_5.mux_l1_in_0_.TGATE_1_.scs8hd_ebufn_2 mux_left_track_5.INVTX1_1_.scs8hd_inv_1/Y
+ _195_/Y mux_left_track_5.mux_l1_in_0_.TGATE_0_.scs8hd_ebufn_2/Z vgnd vpwr scs8hd_ebufn_2
XFILLER_0_29 vpwr vgnd scs8hd_fill_2
X_186_ _186_/A _186_/Y vgnd vpwr scs8hd_inv_8
XANTENNA__176__A _176_/A vgnd vpwr scs8hd_diode_2
Xmem_left_track_11.LATCH_0_.latch data_in _201_/A _162_/Y vgnd vpwr scs8hd_lpflow_inputisolatch_1
XANTENNA_mux_top_track_16.mux_l2_in_0_.TGATE_1_.scs8hd_ebufn_2_TEB _188_/Y vgnd vpwr
+ scs8hd_diode_2
XFILLER_18_36 vgnd vpwr scs8hd_fill_1
XFILLER_18_69 vpwr vgnd scs8hd_fill_2
XFILLER_34_46 vgnd vpwr scs8hd_decap_8
XFILLER_11_269 vgnd vpwr scs8hd_decap_8
X_238_ _238_/A chany_top_out[5] vgnd vpwr scs8hd_buf_2
XFILLER_6_251 vgnd vpwr scs8hd_decap_12
Xmux_left_track_11.INVTX1_1_.scs8hd_inv_1 left_bottom_grid_pin_9_ mux_left_track_11.INVTX1_1_.scs8hd_inv_1/Y
+ vgnd vpwr scs8hd_inv_1
XANTENNA__146__D _140_/D vgnd vpwr scs8hd_diode_2
X_169_ _104_/D _168_/B _155_/X _169_/Y vgnd vpwr scs8hd_nor3_4
XFILLER_1_50 vgnd vpwr scs8hd_decap_8
Xmux_left_track_7.INVTX1_0_.scs8hd_inv_1 chany_top_in[6] mux_left_track_7.INVTX1_0_.scs8hd_inv_1/Y
+ vgnd vpwr scs8hd_inv_1
XFILLER_6_17 vgnd vpwr scs8hd_decap_12
XFILLER_3_232 vgnd vpwr scs8hd_decap_12
XANTENNA_mem_top_track_10.LATCH_0_.latch_SLEEPB _128_/Y vgnd vpwr scs8hd_diode_2
XFILLER_34_169 vgnd vpwr scs8hd_decap_8
XFILLER_34_125 vpwr vgnd scs8hd_fill_2
XANTENNA__157__C _143_/C vgnd vpwr scs8hd_diode_2
XFILLER_25_114 vpwr vgnd scs8hd_fill_2
XFILLER_25_158 vpwr vgnd scs8hd_fill_2
XFILLER_33_191 vgnd vpwr scs8hd_decap_12
XFILLER_31_36 vpwr vgnd scs8hd_fill_2
XFILLER_31_14 vpwr vgnd scs8hd_fill_2
XANTENNA_mux_left_track_9.mux_l2_in_0_.TGATE_0_.scs8hd_ebufn_2_TEB _198_/A vgnd vpwr
+ scs8hd_diode_2
XPHY_131 vgnd vpwr scs8hd_tapvpwrvgnd_1
XPHY_120 vgnd vpwr scs8hd_tapvpwrvgnd_1
XPHY_142 vgnd vpwr scs8hd_tapvpwrvgnd_1
XPHY_153 vgnd vpwr scs8hd_tapvpwrvgnd_1
XFILLER_16_125 vpwr vgnd scs8hd_fill_2
XPHY_164 vgnd vpwr scs8hd_tapvpwrvgnd_1
XPHY_175 vgnd vpwr scs8hd_tapvpwrvgnd_1
XFILLER_21_91 vpwr vgnd scs8hd_fill_2
XPHY_186 vgnd vpwr scs8hd_tapvpwrvgnd_1
XPHY_197 vgnd vpwr scs8hd_tapvpwrvgnd_1
XFILLER_39_239 vgnd vpwr scs8hd_decap_4
XPHY_0 vgnd vpwr scs8hd_decap_3
XFILLER_22_106 vpwr vgnd scs8hd_fill_2
XANTENNA__168__B _168_/B vgnd vpwr scs8hd_diode_2
XANTENNA__184__A _184_/A vgnd vpwr scs8hd_diode_2
XFILLER_15_180 vgnd vpwr scs8hd_decap_3
XFILLER_7_93 vgnd vpwr scs8hd_decap_12
XFILLER_13_139 vgnd vpwr scs8hd_decap_12
XFILLER_26_36 vpwr vgnd scs8hd_fill_2
Xmem_top_track_14.LATCH_0_.latch data_in _187_/A _136_/Y vgnd vpwr scs8hd_lpflow_inputisolatch_1
XFILLER_8_154 vgnd vpwr scs8hd_decap_12
XANTENNA__170__C _152_/X vgnd vpwr scs8hd_diode_2
XANTENNA__179__A _179_/A vgnd vpwr scs8hd_diode_2
XANTENNA_mux_top_track_2.mux_l2_in_0_.TGATE_1_.scs8hd_ebufn_2_TEB _174_/Y vgnd vpwr
+ scs8hd_diode_2
XFILLER_41_245 vgnd vpwr scs8hd_decap_12
XFILLER_5_135 vgnd vpwr scs8hd_decap_12
XANTENNA_mem_left_track_7.LATCH_1_.latch_D data_in vgnd vpwr scs8hd_diode_2
Xmux_top_track_14.tap_buf4_0_.scs8hd_inv_1 mux_top_track_14.tap_buf4_0_.scs8hd_inv_1/A
+ _236_/A vgnd vpwr scs8hd_inv_1
XFILLER_32_212 vpwr vgnd scs8hd_fill_2
XFILLER_17_220 vgnd vpwr scs8hd_decap_12
XANTENNA__149__D _109_/A vgnd vpwr scs8hd_diode_2
XANTENNA_mux_left_track_1.mux_l2_in_0_.TGATE_0_.scs8hd_ebufn_2_A mux_left_track_1.mux_l1_in_0_.TGATE_0_.scs8hd_ebufn_2/Z
+ vgnd vpwr scs8hd_diode_2
XFILLER_4_190 vgnd vpwr scs8hd_decap_12
XFILLER_23_245 vgnd vpwr scs8hd_decap_12
XFILLER_3_7 vgnd vpwr scs8hd_decap_12
XFILLER_2_105 vgnd vpwr scs8hd_decap_12
X_185_ _185_/A _185_/Y vgnd vpwr scs8hd_inv_8
XFILLER_1_171 vgnd vpwr scs8hd_decap_12
XFILLER_20_215 vgnd vpwr scs8hd_decap_12
XANTENNA__192__A _192_/A vgnd vpwr scs8hd_diode_2
XFILLER_34_36 vgnd vpwr scs8hd_fill_1
XFILLER_18_48 vgnd vpwr scs8hd_decap_8
XFILLER_34_69 vpwr vgnd scs8hd_fill_2
XFILLER_7_208 vgnd vpwr scs8hd_decap_12
X_237_ _237_/A chany_top_out[6] vgnd vpwr scs8hd_buf_2
XFILLER_6_263 vgnd vpwr scs8hd_decap_12
X_168_ _104_/D _168_/B _152_/X _168_/Y vgnd vpwr scs8hd_nor3_4
X_099_ address[4] address[5] _100_/A vgnd vpwr scs8hd_or2_4
XFILLER_27_3 vgnd vpwr scs8hd_decap_3
XFILLER_37_156 vgnd vpwr scs8hd_fill_1
XFILLER_1_62 vgnd vpwr scs8hd_decap_12
XANTENNA__187__A _187_/A vgnd vpwr scs8hd_diode_2
XFILLER_28_145 vpwr vgnd scs8hd_fill_2
XANTENNA__097__A address[3] vgnd vpwr scs8hd_diode_2
XFILLER_6_29 vpwr vgnd scs8hd_fill_2
XFILLER_10_93 vgnd vpwr scs8hd_decap_12
XFILLER_34_115 vgnd vpwr scs8hd_fill_1
XANTENNA_mux_top_track_4.mux_l2_in_0_.TGATE_0_.scs8hd_ebufn_2_TEB _176_/A vgnd vpwr
+ scs8hd_diode_2
XANTENNA__157__D _109_/A vgnd vpwr scs8hd_diode_2
XFILLER_25_137 vpwr vgnd scs8hd_fill_2
XFILLER_31_118 vpwr vgnd scs8hd_fill_2
XPHY_132 vgnd vpwr scs8hd_tapvpwrvgnd_1
XPHY_121 vgnd vpwr scs8hd_tapvpwrvgnd_1
XPHY_110 vgnd vpwr scs8hd_tapvpwrvgnd_1
XPHY_143 vgnd vpwr scs8hd_tapvpwrvgnd_1
XPHY_154 vgnd vpwr scs8hd_tapvpwrvgnd_1
XPHY_165 vgnd vpwr scs8hd_tapvpwrvgnd_1
XPHY_176 vgnd vpwr scs8hd_tapvpwrvgnd_1
XPHY_187 vgnd vpwr scs8hd_tapvpwrvgnd_1
XPHY_198 vgnd vpwr scs8hd_tapvpwrvgnd_1
Xmux_left_track_5.INVTX1_0_.scs8hd_inv_1 chany_top_in[7] mux_left_track_5.INVTX1_0_.scs8hd_inv_1/Y
+ vgnd vpwr scs8hd_inv_1
XPHY_1 vgnd vpwr scs8hd_decap_3
XANTENNA__168__C _152_/X vgnd vpwr scs8hd_diode_2
XFILLER_30_173 vpwr vgnd scs8hd_fill_2
XFILLER_30_151 vpwr vgnd scs8hd_fill_2
XFILLER_7_50 vgnd vpwr scs8hd_decap_8
XFILLER_38_251 vgnd vpwr scs8hd_decap_12
XANTENNA_mux_top_track_14.mux_l2_in_0_.TGATE_0_.scs8hd_ebufn_2_A mux_top_track_14.mux_l2_in_0_.TGATE_0_.scs8hd_ebufn_2/A
+ vgnd vpwr scs8hd_diode_2
XFILLER_13_118 vgnd vpwr scs8hd_decap_4
XFILLER_21_184 vgnd vpwr scs8hd_decap_12
XFILLER_3_19 vgnd vpwr scs8hd_decap_12
XFILLER_8_166 vgnd vpwr scs8hd_decap_12
XANTENNA__195__A _195_/A vgnd vpwr scs8hd_diode_2
XANTENNA_mux_top_track_10.mux_l1_in_0_.TGATE_0_.scs8hd_ebufn_2_A mux_top_track_10.INVTX1_0_.scs8hd_inv_1/Y
+ vgnd vpwr scs8hd_diode_2
Xmux_left_track_1.mux_l2_in_0_.TGATE_1_.scs8hd_ebufn_2 _208_/HI _190_/Y mux_left_track_1.tap_buf4_0_.scs8hd_inv_1/A
+ vgnd vpwr scs8hd_ebufn_2
XFILLER_26_276 vgnd vpwr scs8hd_fill_1
XFILLER_41_257 vgnd vpwr scs8hd_decap_12
XFILLER_5_147 vgnd vpwr scs8hd_decap_12
XFILLER_17_232 vgnd vpwr scs8hd_decap_12
XANTENNA_mux_left_track_15.mux_l1_in_0_.TGATE_0_.scs8hd_ebufn_2_A mux_left_track_15.INVTX1_0_.scs8hd_inv_1/Y
+ vgnd vpwr scs8hd_diode_2
XFILLER_23_38 vpwr vgnd scs8hd_fill_2
XFILLER_23_257 vgnd vpwr scs8hd_decap_12
XFILLER_2_117 vgnd vpwr scs8hd_decap_12