* NGSPICE file created from sb_3__1_.ext - technology: EFS8A

* Black-box entry subcircuit for scs8hd_inv_1 abstract view
.subckt scs8hd_inv_1 A Y vgnd vpwr
.ends

* Black-box entry subcircuit for scs8hd_decap_3 abstract view
.subckt scs8hd_decap_3 vgnd vpwr
.ends

* Black-box entry subcircuit for scs8hd_diode_2 abstract view
.subckt scs8hd_diode_2 DIODE vgnd vpwr
.ends

* Black-box entry subcircuit for scs8hd_ebufn_2 abstract view
.subckt scs8hd_ebufn_2 A TEB Z vgnd vpwr
.ends

* Black-box entry subcircuit for scs8hd_decap_12 abstract view
.subckt scs8hd_decap_12 vgnd vpwr
.ends

* Black-box entry subcircuit for scs8hd_fill_1 abstract view
.subckt scs8hd_fill_1 vgnd vpwr
.ends

* Black-box entry subcircuit for scs8hd_decap_6 abstract view
.subckt scs8hd_decap_6 vgnd vpwr
.ends

* Black-box entry subcircuit for scs8hd_fill_2 abstract view
.subckt scs8hd_fill_2 vpwr vgnd
.ends

* Black-box entry subcircuit for scs8hd_inv_8 abstract view
.subckt scs8hd_inv_8 A Y vgnd vpwr
.ends

* Black-box entry subcircuit for scs8hd_nor2_4 abstract view
.subckt scs8hd_nor2_4 A B Y vgnd vpwr
.ends

* Black-box entry subcircuit for scs8hd_lpflow_inputisolatch_1 abstract view
.subckt scs8hd_lpflow_inputisolatch_1 D Q SLEEPB vgnd vpwr
.ends

* Black-box entry subcircuit for scs8hd_or3_4 abstract view
.subckt scs8hd_or3_4 A B C X vgnd vpwr
.ends

* Black-box entry subcircuit for scs8hd_decap_8 abstract view
.subckt scs8hd_decap_8 vgnd vpwr
.ends

* Black-box entry subcircuit for scs8hd_tapvpwrvgnd_1 abstract view
.subckt scs8hd_tapvpwrvgnd_1 vgnd vpwr
.ends

* Black-box entry subcircuit for scs8hd_decap_4 abstract view
.subckt scs8hd_decap_4 vgnd vpwr
.ends

* Black-box entry subcircuit for scs8hd_nor4_4 abstract view
.subckt scs8hd_nor4_4 A B C D Y vgnd vpwr
.ends

* Black-box entry subcircuit for scs8hd_buf_1 abstract view
.subckt scs8hd_buf_1 A X vgnd vpwr
.ends

* Black-box entry subcircuit for scs8hd_buf_2 abstract view
.subckt scs8hd_buf_2 A X vgnd vpwr
.ends

* Black-box entry subcircuit for scs8hd_conb_1 abstract view
.subckt scs8hd_conb_1 HI LO vgnd vpwr
.ends

* Black-box entry subcircuit for scs8hd_or2_4 abstract view
.subckt scs8hd_or2_4 A B X vgnd vpwr
.ends

.subckt sb_3__1_ address[0] address[1] address[2] address[3] address[4] address[5]
+ address[6] bottom_left_grid_pin_13_ bottom_right_grid_pin_11_ bottom_right_grid_pin_13_
+ bottom_right_grid_pin_15_ bottom_right_grid_pin_1_ bottom_right_grid_pin_3_ bottom_right_grid_pin_5_
+ bottom_right_grid_pin_7_ bottom_right_grid_pin_9_ chanx_left_in[0] chanx_left_in[1]
+ chanx_left_in[2] chanx_left_in[3] chanx_left_in[4] chanx_left_in[5] chanx_left_in[6]
+ chanx_left_in[7] chanx_left_in[8] chanx_left_out[0] chanx_left_out[1] chanx_left_out[2]
+ chanx_left_out[3] chanx_left_out[4] chanx_left_out[5] chanx_left_out[6] chanx_left_out[7]
+ chanx_left_out[8] chany_bottom_in[0] chany_bottom_in[1] chany_bottom_in[2] chany_bottom_in[3]
+ chany_bottom_in[4] chany_bottom_in[5] chany_bottom_in[6] chany_bottom_in[7] chany_bottom_in[8]
+ chany_bottom_out[0] chany_bottom_out[1] chany_bottom_out[2] chany_bottom_out[3]
+ chany_bottom_out[4] chany_bottom_out[5] chany_bottom_out[6] chany_bottom_out[7]
+ chany_bottom_out[8] chany_top_in[0] chany_top_in[1] chany_top_in[2] chany_top_in[3]
+ chany_top_in[4] chany_top_in[5] chany_top_in[6] chany_top_in[7] chany_top_in[8]
+ chany_top_out[0] chany_top_out[1] chany_top_out[2] chany_top_out[3] chany_top_out[4]
+ chany_top_out[5] chany_top_out[6] chany_top_out[7] chany_top_out[8] data_in enable
+ left_bottom_grid_pin_12_ left_top_grid_pin_10_ top_left_grid_pin_13_ top_right_grid_pin_11_
+ top_right_grid_pin_13_ top_right_grid_pin_15_ top_right_grid_pin_1_ top_right_grid_pin_3_
+ top_right_grid_pin_5_ top_right_grid_pin_7_ top_right_grid_pin_9_ vpwr vgnd
Xmux_bottom_track_1.INVTX1_1_.scs8hd_inv_1 chany_top_in[4] mux_bottom_track_1.INVTX1_1_.scs8hd_inv_1/Y
+ vgnd vpwr scs8hd_inv_1
XFILLER_9_137 vgnd vpwr scs8hd_decap_3
XANTENNA_mem_top_track_0.LATCH_3_.latch_D data_in vgnd vpwr scs8hd_diode_2
Xmux_top_track_8.mux_l1_in_2_.TGATE_0_.scs8hd_ebufn_2 mux_top_track_8.INVTX1_6_.scs8hd_inv_1/Y
+ mem_top_track_8.LATCH_0_.latch/Q mux_top_track_8.mux_l2_in_0_.TGATE_2_.scs8hd_ebufn_2/A
+ vgnd vpwr scs8hd_ebufn_2
Xmux_top_track_8.INVTX1_0_.scs8hd_inv_1 top_right_grid_pin_1_ mux_top_track_8.INVTX1_0_.scs8hd_inv_1/Y
+ vgnd vpwr scs8hd_inv_1
XANTENNA_mux_bottom_track_9.mux_l1_in_0_.TGATE_2_.scs8hd_ebufn_2_TEB mem_bottom_track_9.LATCH_2_.latch/Q
+ vgnd vpwr scs8hd_diode_2
XANTENNA_mux_left_track_9.mux_l2_in_0_.TGATE_1_.scs8hd_ebufn_2_A _218_/HI vgnd vpwr
+ scs8hd_diode_2
XFILLER_12_32 vgnd vpwr scs8hd_decap_3
XANTENNA_mem_top_track_16.LATCH_0_.latch_SLEEPB _133_/Y vgnd vpwr scs8hd_diode_2
XFILLER_37_62 vgnd vpwr scs8hd_decap_12
XFILLER_18_225 vgnd vpwr scs8hd_fill_1
XFILLER_18_269 vgnd vpwr scs8hd_decap_6
XANTENNA__124__A address[4] vgnd vpwr scs8hd_diode_2
XFILLER_5_184 vpwr vgnd scs8hd_fill_2
XFILLER_24_239 vgnd vpwr scs8hd_decap_12
Xmux_bottom_track_17.mux_l1_in_2_.TGATE_2_.scs8hd_ebufn_2 _208_/HI mem_bottom_track_17.LATCH_2_.latch/Q
+ mux_bottom_track_17.mux_l1_in_2_.TGATE_0_.scs8hd_ebufn_2/Z vgnd vpwr scs8hd_ebufn_2
XANTENNA_mux_left_track_5.mux_l1_in_0_.TGATE_1_.scs8hd_ebufn_2_A mux_left_track_5.INVTX1_1_.scs8hd_inv_1/Y
+ vgnd vpwr scs8hd_diode_2
Xmux_left_track_1.mux_l2_in_0_.TGATE_0_.scs8hd_ebufn_2 mux_left_track_1.mux_l1_in_0_.TGATE_1_.scs8hd_ebufn_2/Z
+ _189_/A mux_left_track_1.tap_buf4_0_.scs8hd_inv_1/A vgnd vpwr scs8hd_ebufn_2
XANTENNA_mux_left_track_3.INVTX1_1_.scs8hd_inv_1_A chany_bottom_in[3] vgnd vpwr scs8hd_diode_2
X_200_ _200_/A _200_/Y vgnd vpwr scs8hd_inv_8
X_131_ _131_/A _132_/B _131_/Y vgnd vpwr scs8hd_nor2_4
XFILLER_23_97 vpwr vgnd scs8hd_fill_2
XFILLER_23_53 vpwr vgnd scs8hd_fill_2
XANTENNA__110__C address[0] vgnd vpwr scs8hd_diode_2
XANTENNA__119__A _119_/A vgnd vpwr scs8hd_diode_2
XFILLER_9_77 vpwr vgnd scs8hd_fill_2
Xmem_bottom_track_17.LATCH_2_.latch data_in mem_bottom_track_17.LATCH_2_.latch/Q _160_/Y
+ vgnd vpwr scs8hd_lpflow_inputisolatch_1
Xmux_bottom_track_9.tap_buf4_0_.scs8hd_inv_1 mux_bottom_track_9.tap_buf4_0_.scs8hd_inv_1/A
+ _235_/A vgnd vpwr scs8hd_inv_1
Xmux_bottom_track_1.mux_l1_in_0_.TGATE_1_.scs8hd_ebufn_2 mux_bottom_track_1.INVTX1_1_.scs8hd_inv_1/Y
+ mem_bottom_track_1.LATCH_1_.latch/Q mux_bottom_track_1.mux_l1_in_0_.TGATE_1_.scs8hd_ebufn_2/Z
+ vgnd vpwr scs8hd_ebufn_2
XANTENNA_mem_bottom_track_17.LATCH_0_.latch_D data_in vgnd vpwr scs8hd_diode_2
XANTENNA_mem_top_track_16.LATCH_1_.latch_D data_in vgnd vpwr scs8hd_diode_2
XFILLER_18_97 vgnd vpwr scs8hd_decap_3
XFILLER_34_85 vgnd vpwr scs8hd_decap_6
XFILLER_11_253 vpwr vgnd scs8hd_fill_2
XFILLER_11_275 vpwr vgnd scs8hd_fill_2
XFILLER_7_257 vgnd vpwr scs8hd_decap_12
XANTENNA_mem_top_track_0.LATCH_2_.latch_SLEEPB _106_/Y vgnd vpwr scs8hd_diode_2
X_114_ _134_/A address[4] _134_/C _114_/X vgnd vpwr scs8hd_or3_4
XANTENNA_mux_left_track_15.mux_l2_in_0_.TGATE_1_.scs8hd_ebufn_2_TEB _203_/Y vgnd vpwr
+ scs8hd_diode_2
Xmux_bottom_track_9.INVTX1_6_.scs8hd_inv_1 chanx_left_in[5] mux_bottom_track_9.INVTX1_6_.scs8hd_inv_1/Y
+ vgnd vpwr scs8hd_inv_1
XANTENNA__121__B _120_/B vgnd vpwr scs8hd_diode_2
Xmux_top_track_0.mux_l2_in_0_.TGATE_1_.scs8hd_ebufn_2 mux_top_track_0.mux_l1_in_1_.TGATE_0_.scs8hd_ebufn_2/Z
+ mem_top_track_0.LATCH_4_.latch/Q mux_top_track_0.tap_buf4_0_.scs8hd_inv_1/A vgnd
+ vpwr scs8hd_ebufn_2
XFILLER_4_227 vgnd vpwr scs8hd_decap_12
XANTENNA__222__A _222_/A vgnd vpwr scs8hd_diode_2
Xmux_left_track_5.mux_l2_in_0_.TGATE_1_.scs8hd_ebufn_2 _216_/HI _193_/Y mux_left_track_5.tap_buf4_0_.scs8hd_inv_1/A
+ vgnd vpwr scs8hd_ebufn_2
Xmux_top_track_16.INVTX1_7_.scs8hd_inv_1 chanx_left_in[7] mux_top_track_16.INVTX1_7_.scs8hd_inv_1/Y
+ vgnd vpwr scs8hd_inv_1
XANTENNA_mem_left_track_11.LATCH_0_.latch_D data_in vgnd vpwr scs8hd_diode_2
XFILLER_6_23 vgnd vpwr scs8hd_decap_8
XANTENNA__116__B _177_/C vgnd vpwr scs8hd_diode_2
XANTENNA__132__A _161_/A vgnd vpwr scs8hd_diode_2
XANTENNA_mux_bottom_track_17.mux_l1_in_0_.TGATE_1_.scs8hd_ebufn_2_A mux_bottom_track_17.INVTX1_1_.scs8hd_inv_1/Y
+ vgnd vpwr scs8hd_diode_2
XFILLER_19_194 vpwr vgnd scs8hd_fill_2
XANTENNA_mux_top_track_0.mux_l2_in_0_.TGATE_2_.scs8hd_ebufn_2_A mux_top_track_0.mux_l2_in_0_.TGATE_2_.scs8hd_ebufn_2/A
+ vgnd vpwr scs8hd_diode_2
XFILLER_40_178 vgnd vpwr scs8hd_decap_12
XFILLER_0_230 vgnd vpwr scs8hd_decap_3
XFILLER_0_241 vgnd vpwr scs8hd_decap_6
XFILLER_31_145 vpwr vgnd scs8hd_fill_2
XFILLER_31_134 vpwr vgnd scs8hd_fill_2
XFILLER_16_186 vgnd vpwr scs8hd_decap_6
XPHY_170 vgnd vpwr scs8hd_tapvpwrvgnd_1
XANTENNA__127__A _127_/A vgnd vpwr scs8hd_diode_2
XPHY_192 vgnd vpwr scs8hd_tapvpwrvgnd_1
XPHY_181 vgnd vpwr scs8hd_tapvpwrvgnd_1
XFILLER_39_245 vgnd vpwr scs8hd_decap_8
XANTENNA_mux_bottom_track_17.mux_l1_in_2_.TGATE_2_.scs8hd_ebufn_2_A _208_/HI vgnd
+ vpwr scs8hd_diode_2
XFILLER_13_112 vpwr vgnd scs8hd_fill_2
XFILLER_42_63 vgnd vpwr scs8hd_decap_12
XFILLER_9_149 vgnd vpwr scs8hd_decap_4
XFILLER_13_178 vgnd vpwr scs8hd_decap_3
Xmux_top_track_16.mux_l1_in_2_.TGATE_1_.scs8hd_ebufn_2 mux_top_track_16.INVTX1_7_.scs8hd_inv_1/Y
+ mem_top_track_16.LATCH_1_.latch/Q mux_top_track_16.mux_l1_in_2_.TGATE_2_.scs8hd_ebufn_2/Z
+ vgnd vpwr scs8hd_ebufn_2
XFILLER_36_215 vgnd vpwr scs8hd_decap_12
Xmux_top_track_0.INVTX1_3_.scs8hd_inv_1 chany_bottom_in[0] mux_top_track_0.INVTX1_3_.scs8hd_inv_1/Y
+ vgnd vpwr scs8hd_inv_1
XFILLER_8_171 vgnd vpwr scs8hd_decap_12
XFILLER_42_218 vgnd vpwr scs8hd_decap_12
Xmux_left_track_1.mux_l1_in_1_.TGATE_1_.scs8hd_ebufn_2 _210_/HI _190_/Y mux_left_track_1.mux_l1_in_1_.TGATE_0_.scs8hd_ebufn_2/Z
+ vgnd vpwr scs8hd_ebufn_2
XFILLER_27_259 vpwr vgnd scs8hd_fill_2
XFILLER_10_148 vgnd vpwr scs8hd_decap_4
XFILLER_12_22 vgnd vpwr scs8hd_decap_4
XFILLER_12_55 vgnd vpwr scs8hd_decap_3
XANTENNA__230__A _230_/A vgnd vpwr scs8hd_diode_2
XFILLER_37_74 vgnd vpwr scs8hd_decap_8
XANTENNA_mux_left_track_17.mux_l2_in_0_.TGATE_0_.scs8hd_ebufn_2_TEB _205_/A vgnd vpwr
+ scs8hd_diode_2
XFILLER_18_204 vpwr vgnd scs8hd_fill_2
Xmux_left_track_13.tap_buf4_0_.scs8hd_inv_1 mux_left_track_13.tap_buf4_0_.scs8hd_inv_1/A
+ _224_/A vgnd vpwr scs8hd_inv_1
XANTENNA_mux_bottom_track_9.mux_l1_in_1_.TGATE_1_.scs8hd_ebufn_2_TEB mem_bottom_track_9.LATCH_1_.latch/Q
+ vgnd vpwr scs8hd_diode_2
XANTENNA_mux_bottom_track_1.mux_l1_in_0_.TGATE_1_.scs8hd_ebufn_2_TEB mem_bottom_track_1.LATCH_1_.latch/Q
+ vgnd vpwr scs8hd_diode_2
XANTENNA__140__A _140_/A vgnd vpwr scs8hd_diode_2
XANTENNA_mux_top_track_0.INVTX1_0_.scs8hd_inv_1_A top_left_grid_pin_13_ vgnd vpwr
+ scs8hd_diode_2
XFILLER_32_251 vgnd vpwr scs8hd_decap_12
XANTENNA_mux_left_track_9.INVTX1_0_.scs8hd_inv_1_A chany_top_in[6] vgnd vpwr scs8hd_diode_2
XFILLER_15_207 vpwr vgnd scs8hd_fill_2
XFILLER_23_32 vpwr vgnd scs8hd_fill_2
X_130_ _140_/A _132_/B _130_/Y vgnd vpwr scs8hd_nor2_4
XFILLER_23_87 vgnd vpwr scs8hd_fill_1
XANTENNA__225__A _225_/A vgnd vpwr scs8hd_diode_2
XFILLER_2_144 vpwr vgnd scs8hd_fill_2
XANTENNA__119__B _120_/B vgnd vpwr scs8hd_diode_2
XANTENNA_mux_left_track_5.tap_buf4_0_.scs8hd_inv_1_A mux_left_track_5.tap_buf4_0_.scs8hd_inv_1/A
+ vgnd vpwr scs8hd_diode_2
XFILLER_0_58 vgnd vpwr scs8hd_decap_4
XFILLER_0_69 vpwr vgnd scs8hd_fill_2
XFILLER_9_12 vpwr vgnd scs8hd_fill_2
XANTENNA__135__A _134_/X vgnd vpwr scs8hd_diode_2
XFILLER_9_34 vgnd vpwr scs8hd_decap_4
Xmux_top_track_0.mux_l1_in_1_.TGATE_2_.scs8hd_ebufn_2 mux_top_track_0.INVTX1_5_.scs8hd_inv_1/Y
+ mem_top_track_0.LATCH_2_.latch/Q mux_top_track_0.mux_l1_in_1_.TGATE_0_.scs8hd_ebufn_2/Z
+ vgnd vpwr scs8hd_ebufn_2
XANTENNA_mux_top_track_8.INVTX1_2_.scs8hd_inv_1_A top_right_grid_pin_13_ vgnd vpwr
+ scs8hd_diode_2
XFILLER_20_232 vgnd vpwr scs8hd_decap_12
XFILLER_20_276 vgnd vpwr scs8hd_fill_1
Xmux_left_track_5.tap_buf4_0_.scs8hd_inv_1 mux_left_track_5.tap_buf4_0_.scs8hd_inv_1/A
+ _228_/A vgnd vpwr scs8hd_inv_1
XANTENNA_mux_bottom_track_17.mux_l1_in_0_.TGATE_0_.scs8hd_ebufn_2_TEB mem_bottom_track_17.LATCH_0_.latch/Q
+ vgnd vpwr scs8hd_diode_2
XFILLER_18_32 vgnd vpwr scs8hd_decap_4
XANTENNA_mux_left_track_7.mux_l1_in_0_.TGATE_1_.scs8hd_ebufn_2_TEB _196_/Y vgnd vpwr
+ scs8hd_diode_2
X_113_ address[3] _134_/A vgnd vpwr scs8hd_inv_8
XFILLER_11_210 vgnd vpwr scs8hd_decap_4
XFILLER_11_221 vpwr vgnd scs8hd_fill_2
XFILLER_11_243 vgnd vpwr scs8hd_fill_1
XANTENNA_mem_left_track_1.LATCH_0_.latch_SLEEPB _168_/Y vgnd vpwr scs8hd_diode_2
XFILLER_7_269 vgnd vpwr scs8hd_decap_8
XFILLER_37_184 vgnd vpwr scs8hd_decap_12
XANTENNA_mux_bottom_track_1.INVTX1_5_.scs8hd_inv_1_A chanx_left_in[1] vgnd vpwr scs8hd_diode_2
XFILLER_4_239 vgnd vpwr scs8hd_decap_12
XFILLER_20_11 vgnd vpwr scs8hd_fill_1
XFILLER_20_99 vgnd vpwr scs8hd_decap_4
XFILLER_6_35 vgnd vpwr scs8hd_decap_6
Xmux_left_track_3.mux_l1_in_0_.TGATE_0_.scs8hd_ebufn_2 mux_left_track_3.INVTX1_0_.scs8hd_inv_1/Y
+ _192_/A mux_left_track_3.mux_l1_in_0_.TGATE_0_.scs8hd_ebufn_2/Z vgnd vpwr scs8hd_ebufn_2
XANTENNA__132__B _132_/B vgnd vpwr scs8hd_diode_2
XFILLER_19_184 vgnd vpwr scs8hd_fill_1
XFILLER_34_154 vgnd vpwr scs8hd_decap_12
Xmem_left_track_5.LATCH_1_.latch data_in _193_/A _174_/Y vgnd vpwr scs8hd_lpflow_inputisolatch_1
XANTENNA_mux_bottom_track_9.INVTX1_7_.scs8hd_inv_1_A chanx_left_in[8] vgnd vpwr scs8hd_diode_2
XANTENNA_mux_top_track_8.mux_l1_in_1_.TGATE_2_.scs8hd_ebufn_2_TEB mem_top_track_8.LATCH_2_.latch/Q
+ vgnd vpwr scs8hd_diode_2
XANTENNA_mux_top_track_16.mux_l1_in_0_.TGATE_1_.scs8hd_ebufn_2_TEB mem_top_track_16.LATCH_1_.latch/Q
+ vgnd vpwr scs8hd_diode_2
XANTENNA_mux_top_track_0.mux_l1_in_0_.TGATE_2_.scs8hd_ebufn_2_TEB mem_top_track_0.LATCH_2_.latch/Q
+ vgnd vpwr scs8hd_diode_2
XFILLER_25_187 vpwr vgnd scs8hd_fill_2
XFILLER_25_121 vgnd vpwr scs8hd_fill_1
XANTENNA__233__A chany_top_in[5] vgnd vpwr scs8hd_diode_2
Xmux_left_track_17.INVTX1_1_.scs8hd_inv_1 chany_top_in[7] mux_left_track_17.INVTX1_1_.scs8hd_inv_1/Y
+ vgnd vpwr scs8hd_inv_1
XPHY_193 vgnd vpwr scs8hd_tapvpwrvgnd_1
XPHY_182 vgnd vpwr scs8hd_tapvpwrvgnd_1
XPHY_160 vgnd vpwr scs8hd_tapvpwrvgnd_1
XFILLER_16_154 vpwr vgnd scs8hd_fill_2
XPHY_171 vgnd vpwr scs8hd_tapvpwrvgnd_1
XANTENNA__143__A _133_/A vgnd vpwr scs8hd_diode_2
XFILLER_7_9 vpwr vgnd scs8hd_fill_2
XFILLER_26_32 vpwr vgnd scs8hd_fill_2
XFILLER_26_10 vpwr vgnd scs8hd_fill_2
XANTENNA_mem_left_track_1.LATCH_0_.latch_D data_in vgnd vpwr scs8hd_diode_2
XANTENNA__228__A _228_/A vgnd vpwr scs8hd_diode_2
XFILLER_13_157 vpwr vgnd scs8hd_fill_2
XFILLER_42_75 vgnd vpwr scs8hd_decap_12
Xmux_bottom_track_17.tap_buf4_0_.scs8hd_inv_1 mux_bottom_track_17.tap_buf4_0_.scs8hd_inv_1/A
+ _231_/A vgnd vpwr scs8hd_inv_1
XANTENNA_mux_bottom_track_17.INVTX1_5_.scs8hd_inv_1_A chanx_left_in[0] vgnd vpwr scs8hd_diode_2
XFILLER_36_227 vgnd vpwr scs8hd_decap_12
XANTENNA__138__A _128_/A vgnd vpwr scs8hd_diode_2
Xmux_left_track_7.mux_l1_in_0_.TGATE_1_.scs8hd_ebufn_2 mux_left_track_7.INVTX1_1_.scs8hd_inv_1/Y
+ _196_/Y mux_left_track_7.mux_l1_in_0_.TGATE_0_.scs8hd_ebufn_2/Z vgnd vpwr scs8hd_ebufn_2
XFILLER_8_194 vgnd vpwr scs8hd_decap_8
Xmux_bottom_track_9.mux_l1_in_2_.TGATE_1_.scs8hd_ebufn_2 mux_bottom_track_9.INVTX1_7_.scs8hd_inv_1/Y
+ mem_bottom_track_9.LATCH_1_.latch/Q mux_bottom_track_9.mux_l1_in_2_.TGATE_0_.scs8hd_ebufn_2/Z
+ vgnd vpwr scs8hd_ebufn_2
XFILLER_10_127 vpwr vgnd scs8hd_fill_2
XFILLER_12_89 vgnd vpwr scs8hd_decap_3
XANTENNA_mux_left_track_9.mux_l1_in_0_.TGATE_0_.scs8hd_ebufn_2_TEB _198_/A vgnd vpwr
+ scs8hd_diode_2
XFILLER_5_6 vpwr vgnd scs8hd_fill_2
XFILLER_37_31 vgnd vpwr scs8hd_decap_12
XFILLER_33_208 vgnd vpwr scs8hd_decap_12
XFILLER_26_271 vgnd vpwr scs8hd_decap_4
XFILLER_5_153 vpwr vgnd scs8hd_fill_2
XFILLER_5_197 vpwr vgnd scs8hd_fill_2
XFILLER_38_6 vgnd vpwr scs8hd_decap_12
XANTENNA__140__B _140_/B vgnd vpwr scs8hd_diode_2
XANTENNA_mux_top_track_0.mux_l1_in_1_.TGATE_2_.scs8hd_ebufn_2_A mux_top_track_0.INVTX1_5_.scs8hd_inv_1/Y
+ vgnd vpwr scs8hd_diode_2
XFILLER_32_263 vgnd vpwr scs8hd_decap_12
XFILLER_23_11 vpwr vgnd scs8hd_fill_2
XANTENNA__241__A chany_bottom_in[6] vgnd vpwr scs8hd_diode_2
XFILLER_3_3 vpwr vgnd scs8hd_fill_2
XANTENNA_mux_bottom_track_9.mux_l1_in_2_.TGATE_0_.scs8hd_ebufn_2_TEB mem_bottom_track_9.LATCH_0_.latch/Q
+ vgnd vpwr scs8hd_diode_2
XANTENNA_mux_bottom_track_1.mux_l1_in_1_.TGATE_0_.scs8hd_ebufn_2_TEB mem_bottom_track_1.LATCH_0_.latch/Q
+ vgnd vpwr scs8hd_diode_2
XFILLER_0_15 vgnd vpwr scs8hd_decap_4
X_189_ _189_/A _189_/Y vgnd vpwr scs8hd_inv_8
XFILLER_36_3 vgnd vpwr scs8hd_decap_12
XANTENNA__151__A _140_/A vgnd vpwr scs8hd_diode_2
XFILLER_18_11 vpwr vgnd scs8hd_fill_2
XFILLER_18_22 vgnd vpwr scs8hd_fill_1
XFILLER_34_32 vgnd vpwr scs8hd_decap_12
XANTENNA_mux_top_track_16.mux_l2_in_0_.TGATE_2_.scs8hd_ebufn_2_A mux_top_track_16.mux_l1_in_2_.TGATE_2_.scs8hd_ebufn_2/Z
+ vgnd vpwr scs8hd_diode_2
XFILLER_18_88 vpwr vgnd scs8hd_fill_2
XANTENNA__236__A chany_top_in[2] vgnd vpwr scs8hd_diode_2
X_112_ _099_/A _133_/A _112_/Y vgnd vpwr scs8hd_nor2_4
XANTENNA__146__A _155_/B vgnd vpwr scs8hd_diode_2
XFILLER_37_196 vgnd vpwr scs8hd_decap_12
Xmux_bottom_track_1.mux_l2_in_0_.TGATE_2_.scs8hd_ebufn_2 mux_bottom_track_1.mux_l1_in_2_.TGATE_2_.scs8hd_ebufn_2/Z
+ mem_bottom_track_1.LATCH_5_.latch/Q mux_bottom_track_1.tap_buf4_0_.scs8hd_inv_1/A
+ vgnd vpwr scs8hd_ebufn_2
XFILLER_20_23 vgnd vpwr scs8hd_decap_4
XFILLER_20_45 vpwr vgnd scs8hd_fill_2
XFILLER_20_89 vgnd vpwr scs8hd_decap_3
XFILLER_29_65 vpwr vgnd scs8hd_fill_2
XFILLER_28_174 vgnd vpwr scs8hd_decap_12
XFILLER_28_163 vgnd vpwr scs8hd_decap_3
XFILLER_6_14 vgnd vpwr scs8hd_decap_3
XFILLER_3_262 vgnd vpwr scs8hd_decap_12
XFILLER_34_166 vgnd vpwr scs8hd_decap_12
XFILLER_25_177 vpwr vgnd scs8hd_fill_2
XFILLER_15_12 vpwr vgnd scs8hd_fill_2
XFILLER_15_34 vpwr vgnd scs8hd_fill_2
XFILLER_31_55 vgnd vpwr scs8hd_decap_3
XFILLER_31_44 vgnd vpwr scs8hd_decap_4
XFILLER_31_22 vgnd vpwr scs8hd_decap_3
XFILLER_31_11 vgnd vpwr scs8hd_decap_4
XFILLER_31_114 vpwr vgnd scs8hd_fill_2
XPHY_194 vgnd vpwr scs8hd_tapvpwrvgnd_1
XPHY_183 vgnd vpwr scs8hd_tapvpwrvgnd_1
XPHY_150 vgnd vpwr scs8hd_tapvpwrvgnd_1
XPHY_161 vgnd vpwr scs8hd_tapvpwrvgnd_1
XPHY_172 vgnd vpwr scs8hd_tapvpwrvgnd_1
XANTENNA__143__B _140_/B vgnd vpwr scs8hd_diode_2
XANTENNA_mux_top_track_8.mux_l1_in_2_.TGATE_1_.scs8hd_ebufn_2_TEB mem_top_track_8.LATCH_1_.latch/Q
+ vgnd vpwr scs8hd_diode_2
XFILLER_39_258 vpwr vgnd scs8hd_fill_2
XFILLER_39_225 vpwr vgnd scs8hd_fill_2
XANTENNA_mux_top_track_16.mux_l1_in_1_.TGATE_0_.scs8hd_ebufn_2_TEB mem_top_track_16.LATCH_0_.latch/Q
+ vgnd vpwr scs8hd_diode_2
XANTENNA_mux_top_track_0.mux_l1_in_1_.TGATE_1_.scs8hd_ebufn_2_TEB mem_top_track_0.LATCH_1_.latch/Q
+ vgnd vpwr scs8hd_diode_2
XFILLER_22_125 vgnd vpwr scs8hd_decap_6
XFILLER_22_169 vpwr vgnd scs8hd_fill_2
XFILLER_42_87 vgnd vpwr scs8hd_decap_6
XFILLER_42_32 vgnd vpwr scs8hd_decap_12
XFILLER_9_118 vpwr vgnd scs8hd_fill_2
XFILLER_13_136 vgnd vpwr scs8hd_decap_4
XANTENNA__244__A _244_/A vgnd vpwr scs8hd_diode_2
XFILLER_3_59 vpwr vgnd scs8hd_fill_2
XFILLER_36_239 vgnd vpwr scs8hd_decap_12
Xmux_bottom_track_17.INVTX1_4_.scs8hd_inv_1 bottom_left_grid_pin_13_ mux_bottom_track_17.INVTX1_4_.scs8hd_inv_1/Y
+ vgnd vpwr scs8hd_inv_1
XANTENNA__138__B _140_/B vgnd vpwr scs8hd_diode_2
XANTENNA__154__A _133_/A vgnd vpwr scs8hd_diode_2
XFILLER_8_151 vpwr vgnd scs8hd_fill_2
XFILLER_12_180 vgnd vpwr scs8hd_decap_4
XANTENNA_mux_left_track_17.mux_l2_in_0_.TGATE_0_.scs8hd_ebufn_2_A mux_left_track_17.mux_l1_in_0_.TGATE_1_.scs8hd_ebufn_2/Z
+ vgnd vpwr scs8hd_diode_2
Xmux_left_track_15.INVTX1_1_.scs8hd_inv_1 chany_top_in[8] mux_left_track_15.INVTX1_1_.scs8hd_inv_1/Y
+ vgnd vpwr scs8hd_inv_1
XFILLER_12_68 vpwr vgnd scs8hd_fill_2
XFILLER_41_220 vgnd vpwr scs8hd_decap_12
XFILLER_37_43 vgnd vpwr scs8hd_decap_12
XANTENNA_mux_top_track_8.mux_l2_in_0_.TGATE_1_.scs8hd_ebufn_2_A mux_top_track_8.mux_l2_in_0_.TGATE_1_.scs8hd_ebufn_2/A
+ vgnd vpwr scs8hd_diode_2
XANTENNA__239__A _239_/A vgnd vpwr scs8hd_diode_2
XFILLER_5_121 vgnd vpwr scs8hd_fill_1
Xmem_left_track_15.LATCH_0_.latch data_in _204_/A _186_/Y vgnd vpwr scs8hd_lpflow_inputisolatch_1
XFILLER_5_132 vpwr vgnd scs8hd_fill_2
XFILLER_5_176 vpwr vgnd scs8hd_fill_2
Xmem_top_track_0.LATCH_0_.latch data_in mem_top_track_0.LATCH_0_.latch/Q _112_/Y vgnd
+ vpwr scs8hd_lpflow_inputisolatch_1
XANTENNA__149__A _128_/A vgnd vpwr scs8hd_diode_2
XFILLER_17_261 vgnd vpwr scs8hd_decap_12
XANTENNA_mux_left_track_13.mux_l1_in_0_.TGATE_0_.scs8hd_ebufn_2_A mux_left_track_13.INVTX1_0_.scs8hd_inv_1/Y
+ vgnd vpwr scs8hd_diode_2
Xmux_bottom_track_17.mux_l2_in_0_.TGATE_0_.scs8hd_ebufn_2 mux_bottom_track_17.mux_l2_in_0_.TGATE_0_.scs8hd_ebufn_2/A
+ mem_bottom_track_17.LATCH_3_.latch/Q mux_bottom_track_17.tap_buf4_0_.scs8hd_inv_1/A
+ vgnd vpwr scs8hd_ebufn_2
XFILLER_23_220 vpwr vgnd scs8hd_fill_2
XANTENNA_mem_left_track_13.LATCH_0_.latch_SLEEPB _184_/Y vgnd vpwr scs8hd_diode_2
XFILLER_2_168 vgnd vpwr scs8hd_decap_3
XFILLER_2_102 vpwr vgnd scs8hd_fill_2
XANTENNA_mux_bottom_track_1.INVTX1_0_.scs8hd_inv_1_A chany_top_in[0] vgnd vpwr scs8hd_diode_2
XFILLER_0_27 vgnd vpwr scs8hd_decap_4
XFILLER_0_49 vgnd vpwr scs8hd_fill_1
XANTENNA_mux_top_track_16.INVTX1_7_.scs8hd_inv_1_A chanx_left_in[7] vgnd vpwr scs8hd_diode_2
X_188_ _172_/A _163_/A _166_/C _167_/A _188_/Y vgnd vpwr scs8hd_nor4_4
XANTENNA__151__B _153_/B vgnd vpwr scs8hd_diode_2
XFILLER_1_190 vgnd vpwr scs8hd_decap_12
XFILLER_34_44 vgnd vpwr scs8hd_decap_12
XANTENNA_mux_bottom_track_9.INVTX1_2_.scs8hd_inv_1_A bottom_right_grid_pin_3_ vgnd
+ vpwr scs8hd_diode_2
X_111_ _110_/X _133_/A vgnd vpwr scs8hd_buf_1
XFILLER_11_245 vgnd vpwr scs8hd_decap_8
XANTENNA__162__A _133_/A vgnd vpwr scs8hd_diode_2
XFILLER_1_81 vpwr vgnd scs8hd_fill_2
XFILLER_4_208 vgnd vpwr scs8hd_decap_6
XFILLER_29_11 vpwr vgnd scs8hd_fill_2
XFILLER_20_79 vpwr vgnd scs8hd_fill_2
XFILLER_29_88 vpwr vgnd scs8hd_fill_2
XFILLER_29_55 vgnd vpwr scs8hd_decap_4
XFILLER_28_186 vgnd vpwr scs8hd_decap_12
XFILLER_28_120 vgnd vpwr scs8hd_decap_6
XANTENNA__247__A chany_bottom_in[0] vgnd vpwr scs8hd_diode_2
XFILLER_3_241 vgnd vpwr scs8hd_decap_3
XFILLER_3_274 vgnd vpwr scs8hd_decap_3
XFILLER_20_7 vpwr vgnd scs8hd_fill_2
XFILLER_19_131 vpwr vgnd scs8hd_fill_2
XFILLER_34_178 vgnd vpwr scs8hd_decap_12
XFILLER_19_175 vpwr vgnd scs8hd_fill_2
XANTENNA_mux_bottom_track_9.mux_l2_in_0_.TGATE_2_.scs8hd_ebufn_2_TEB mem_bottom_track_9.LATCH_5_.latch/Q
+ vgnd vpwr scs8hd_diode_2
XANTENNA__157__A _128_/A vgnd vpwr scs8hd_diode_2
Xmem_bottom_track_1.LATCH_2_.latch data_in mem_bottom_track_1.LATCH_2_.latch/Q _141_/Y
+ vgnd vpwr scs8hd_lpflow_inputisolatch_1
XANTENNA_mem_bottom_track_9.LATCH_0_.latch_D data_in vgnd vpwr scs8hd_diode_2
XANTENNA_mem_top_track_8.LATCH_3_.latch_SLEEPB _120_/Y vgnd vpwr scs8hd_diode_2
XANTENNA_mux_bottom_track_17.INVTX1_0_.scs8hd_inv_1_A chany_top_in[2] vgnd vpwr scs8hd_diode_2
XFILLER_25_156 vpwr vgnd scs8hd_fill_2
XFILLER_25_145 vpwr vgnd scs8hd_fill_2
XFILLER_15_57 vpwr vgnd scs8hd_fill_2
XFILLER_16_134 vgnd vpwr scs8hd_decap_4
XFILLER_16_145 vgnd vpwr scs8hd_decap_8
XFILLER_31_126 vpwr vgnd scs8hd_fill_2
XPHY_195 vgnd vpwr scs8hd_tapvpwrvgnd_1
XANTENNA_mem_left_track_11.LATCH_1_.latch_SLEEPB _181_/Y vgnd vpwr scs8hd_diode_2
XPHY_184 vgnd vpwr scs8hd_tapvpwrvgnd_1
XPHY_140 vgnd vpwr scs8hd_tapvpwrvgnd_1
XPHY_151 vgnd vpwr scs8hd_tapvpwrvgnd_1
XPHY_162 vgnd vpwr scs8hd_tapvpwrvgnd_1
XPHY_173 vgnd vpwr scs8hd_tapvpwrvgnd_1
Xmux_left_track_3.mux_l2_in_0_.TGATE_1_.scs8hd_ebufn_2 mux_left_track_3.mux_l1_in_1_.TGATE_0_.scs8hd_ebufn_2/Z
+ _191_/Y mux_left_track_3.tap_buf4_0_.scs8hd_inv_1/A vgnd vpwr scs8hd_ebufn_2
XANTENNA_mux_top_track_16.mux_l1_in_1_.TGATE_2_.scs8hd_ebufn_2_A mux_top_track_16.INVTX1_5_.scs8hd_inv_1/Y
+ vgnd vpwr scs8hd_diode_2
XANTENNA_mux_left_track_17.mux_l1_in_0_.TGATE_1_.scs8hd_ebufn_2_TEB _206_/Y vgnd vpwr
+ scs8hd_diode_2
Xmem_left_track_1.LATCH_1_.latch data_in _189_/A _166_/Y vgnd vpwr scs8hd_lpflow_inputisolatch_1
XFILLER_26_67 vpwr vgnd scs8hd_fill_2
XFILLER_26_23 vpwr vgnd scs8hd_fill_2
XANTENNA_mux_left_track_11.INVTX1_1_.scs8hd_inv_1_A chany_bottom_in[5] vgnd vpwr scs8hd_diode_2
XANTENNA_mux_top_track_0.mux_l1_in_2_.TGATE_0_.scs8hd_ebufn_2_A mux_top_track_0.INVTX1_6_.scs8hd_inv_1/Y
+ vgnd vpwr scs8hd_diode_2
XFILLER_42_44 vgnd vpwr scs8hd_decap_12
XANTENNA_mux_top_track_0.mux_l1_in_2_.TGATE_0_.scs8hd_ebufn_2_TEB mem_top_track_0.LATCH_0_.latch/Q
+ vgnd vpwr scs8hd_diode_2
Xmux_bottom_track_17.mux_l1_in_1_.TGATE_1_.scs8hd_ebufn_2 mux_bottom_track_17.INVTX1_4_.scs8hd_inv_1/Y
+ mem_bottom_track_17.LATCH_1_.latch/Q mux_bottom_track_17.mux_l1_in_1_.TGATE_2_.scs8hd_ebufn_2/Z
+ vgnd vpwr scs8hd_ebufn_2
XANTENNA__154__B _153_/B vgnd vpwr scs8hd_diode_2
XANTENNA__170__A _169_/A vgnd vpwr scs8hd_diode_2
XFILLER_10_107 vpwr vgnd scs8hd_fill_2
XFILLER_12_14 vpwr vgnd scs8hd_fill_2
XANTENNA_mem_bottom_track_17.LATCH_3_.latch_D data_in vgnd vpwr scs8hd_diode_2
XFILLER_37_55 vgnd vpwr scs8hd_decap_6
XANTENNA_mem_top_track_16.LATCH_4_.latch_D data_in vgnd vpwr scs8hd_diode_2
XFILLER_18_218 vgnd vpwr scs8hd_decap_4
XFILLER_41_232 vgnd vpwr scs8hd_decap_12
XFILLER_37_88 vpwr vgnd scs8hd_fill_2
XFILLER_26_251 vgnd vpwr scs8hd_decap_4
XANTENNA__149__B _153_/B vgnd vpwr scs8hd_diode_2
XFILLER_17_240 vgnd vpwr scs8hd_decap_4
XFILLER_17_273 vgnd vpwr scs8hd_decap_4
XFILLER_32_276 vgnd vpwr scs8hd_fill_1
XANTENNA__165__A _165_/A vgnd vpwr scs8hd_diode_2
XFILLER_4_70 vgnd vpwr scs8hd_decap_4
XANTENNA_mux_left_track_7.mux_l1_in_0_.TGATE_1_.scs8hd_ebufn_2_A mux_left_track_7.INVTX1_1_.scs8hd_inv_1/Y
+ vgnd vpwr scs8hd_diode_2
XFILLER_23_79 vpwr vgnd scs8hd_fill_2
XFILLER_23_57 vpwr vgnd scs8hd_fill_2
XFILLER_23_24 vpwr vgnd scs8hd_fill_2
XANTENNA_mem_top_track_8.LATCH_0_.latch_D data_in vgnd vpwr scs8hd_diode_2
XFILLER_2_136 vgnd vpwr scs8hd_decap_6
XFILLER_2_125 vpwr vgnd scs8hd_fill_2
Xmux_left_track_13.INVTX1_1_.scs8hd_inv_1 chany_bottom_in[6] mux_left_track_13.INVTX1_1_.scs8hd_inv_1/Y
+ vgnd vpwr scs8hd_inv_1
XFILLER_0_39 vpwr vgnd scs8hd_fill_2
XFILLER_14_276 vgnd vpwr scs8hd_fill_1
X_187_ _172_/A _163_/A _166_/C _165_/A _187_/Y vgnd vpwr scs8hd_nor4_4
XFILLER_1_180 vgnd vpwr scs8hd_decap_3
Xmux_left_track_9.INVTX1_0_.scs8hd_inv_1 chany_top_in[6] mux_left_track_9.INVTX1_0_.scs8hd_inv_1/Y
+ vgnd vpwr scs8hd_inv_1
Xmux_bottom_track_9.INVTX1_3_.scs8hd_inv_1 bottom_right_grid_pin_9_ mux_bottom_track_9.INVTX1_3_.scs8hd_inv_1/Y
+ vgnd vpwr scs8hd_inv_1
XFILLER_34_56 vgnd vpwr scs8hd_fill_1
X_110_ address[1] address[2] address[0] _110_/X vgnd vpwr scs8hd_or3_4
XFILLER_7_206 vpwr vgnd scs8hd_fill_2
X_239_ _239_/A chany_bottom_out[0] vgnd vpwr scs8hd_buf_2
XFILLER_41_3 vgnd vpwr scs8hd_decap_12
XANTENNA__162__B _162_/B vgnd vpwr scs8hd_diode_2
Xmux_top_track_16.INVTX1_4_.scs8hd_inv_1 chany_bottom_in[6] mux_top_track_16.INVTX1_4_.scs8hd_inv_1/Y
+ vgnd vpwr scs8hd_inv_1
XANTENNA_mux_top_track_8.mux_l1_in_1_.TGATE_1_.scs8hd_ebufn_2_A mux_top_track_8.INVTX1_4_.scs8hd_inv_1/Y
+ vgnd vpwr scs8hd_diode_2
XANTENNA_mux_top_track_16.tap_buf4_0_.scs8hd_inv_1_A mux_top_track_16.tap_buf4_0_.scs8hd_inv_1/A
+ vgnd vpwr scs8hd_diode_2
XFILLER_29_34 vpwr vgnd scs8hd_fill_2
XFILLER_28_198 vgnd vpwr scs8hd_decap_12
XFILLER_3_253 vpwr vgnd scs8hd_fill_2
XFILLER_34_124 vgnd vpwr scs8hd_decap_12
XFILLER_19_198 vpwr vgnd scs8hd_fill_2
XANTENNA__157__B _162_/B vgnd vpwr scs8hd_diode_2
XANTENNA_mux_left_track_11.mux_l2_in_0_.TGATE_1_.scs8hd_ebufn_2_A _211_/HI vgnd vpwr
+ scs8hd_diode_2
XANTENNA__173__A address[5] vgnd vpwr scs8hd_diode_2
XFILLER_25_113 vpwr vgnd scs8hd_fill_2
XANTENNA_mem_left_track_9.LATCH_1_.latch_SLEEPB _178_/Y vgnd vpwr scs8hd_diode_2
XFILLER_40_105 vgnd vpwr scs8hd_decap_12
XFILLER_31_79 vpwr vgnd scs8hd_fill_2
XFILLER_31_149 vgnd vpwr scs8hd_decap_12
Xmux_top_track_16.mux_l1_in_1_.TGATE_0_.scs8hd_ebufn_2 mux_top_track_16.INVTX1_3_.scs8hd_inv_1/Y
+ mem_top_track_16.LATCH_0_.latch/Q mux_top_track_16.mux_l1_in_1_.TGATE_1_.scs8hd_ebufn_2/Z
+ vgnd vpwr scs8hd_ebufn_2
XPHY_130 vgnd vpwr scs8hd_tapvpwrvgnd_1
XPHY_141 vgnd vpwr scs8hd_tapvpwrvgnd_1
XPHY_152 vgnd vpwr scs8hd_tapvpwrvgnd_1
XFILLER_16_102 vpwr vgnd scs8hd_fill_2
XFILLER_16_113 vpwr vgnd scs8hd_fill_2
XANTENNA_mem_left_track_17.LATCH_1_.latch_D data_in vgnd vpwr scs8hd_diode_2
XPHY_196 vgnd vpwr scs8hd_tapvpwrvgnd_1
XPHY_185 vgnd vpwr scs8hd_tapvpwrvgnd_1
XPHY_163 vgnd vpwr scs8hd_tapvpwrvgnd_1
XPHY_174 vgnd vpwr scs8hd_tapvpwrvgnd_1
XANTENNA_mux_bottom_track_1.mux_l2_in_0_.TGATE_1_.scs8hd_ebufn_2_TEB mem_bottom_track_1.LATCH_4_.latch/Q
+ vgnd vpwr scs8hd_diode_2
XANTENNA__168__A _169_/A vgnd vpwr scs8hd_diode_2
XFILLER_15_190 vpwr vgnd scs8hd_fill_2
Xmux_left_track_1.mux_l1_in_0_.TGATE_0_.scs8hd_ebufn_2 mux_left_track_1.INVTX1_0_.scs8hd_inv_1/Y
+ _190_/A mux_left_track_1.mux_l1_in_0_.TGATE_1_.scs8hd_ebufn_2/Z vgnd vpwr scs8hd_ebufn_2
XANTENNA_mux_left_track_17.INVTX1_0_.scs8hd_inv_1_A chany_top_in[1] vgnd vpwr scs8hd_diode_2
XFILLER_26_57 vgnd vpwr scs8hd_fill_1
XFILLER_13_116 vgnd vpwr scs8hd_decap_4
Xmux_top_track_0.INVTX1_0_.scs8hd_inv_1 top_left_grid_pin_13_ mux_top_track_0.INVTX1_0_.scs8hd_inv_1/Y
+ vgnd vpwr scs8hd_inv_1
XFILLER_42_56 vgnd vpwr scs8hd_decap_6
XFILLER_21_171 vpwr vgnd scs8hd_fill_2
XFILLER_21_160 vpwr vgnd scs8hd_fill_2
XFILLER_3_39 vgnd vpwr scs8hd_fill_1
XFILLER_16_90 vpwr vgnd scs8hd_fill_2
XANTENNA__170__B _163_/X vgnd vpwr scs8hd_diode_2
XFILLER_27_208 vgnd vpwr scs8hd_decap_12
XANTENNA_mux_top_track_16.INVTX1_2_.scs8hd_inv_1_A top_right_grid_pin_15_ vgnd vpwr
+ scs8hd_diode_2
XANTENNA_mux_bottom_track_17.mux_l2_in_0_.TGATE_0_.scs8hd_ebufn_2_TEB mem_bottom_track_17.LATCH_3_.latch/Q
+ vgnd vpwr scs8hd_diode_2
XANTENNA_mux_left_track_7.mux_l2_in_0_.TGATE_1_.scs8hd_ebufn_2_TEB _195_/Y vgnd vpwr
+ scs8hd_diode_2
XFILLER_18_208 vgnd vpwr scs8hd_decap_6
Xmem_top_track_8.LATCH_1_.latch data_in mem_top_track_8.LATCH_1_.latch/Q _122_/Y vgnd
+ vpwr scs8hd_lpflow_inputisolatch_1
XANTENNA_mux_bottom_track_9.mux_l2_in_0_.TGATE_2_.scs8hd_ebufn_2_A mux_bottom_track_9.mux_l1_in_2_.TGATE_0_.scs8hd_ebufn_2/Z
+ vgnd vpwr scs8hd_diode_2
Xmux_top_track_0.mux_l1_in_0_.TGATE_1_.scs8hd_ebufn_2 mux_top_track_0.INVTX1_1_.scs8hd_inv_1/Y
+ mem_top_track_0.LATCH_1_.latch/Q mux_top_track_0.mux_l1_in_0_.TGATE_0_.scs8hd_ebufn_2/Z
+ vgnd vpwr scs8hd_ebufn_2