* NGSPICE file created from sb_8__8_.ext - technology: sky130A

* Black-box entry subcircuit for sky130_fd_sc_hd__decap_12 abstract view
.subckt sky130_fd_sc_hd__decap_12 VGND VNB VPB VPWR
.ends

* Black-box entry subcircuit for sky130_fd_sc_hd__fill_1 abstract view
.subckt sky130_fd_sc_hd__fill_1 VGND VNB VPB VPWR
.ends

* Black-box entry subcircuit for sky130_fd_sc_hd__dfxtp_1 abstract view
.subckt sky130_fd_sc_hd__dfxtp_1 D Q CLK VGND VNB VPB VPWR
.ends

* Black-box entry subcircuit for sky130_fd_sc_hd__mux2_1 abstract view
.subckt sky130_fd_sc_hd__mux2_1 A0 A1 S X VGND VNB VPB VPWR
.ends

* Black-box entry subcircuit for sky130_fd_sc_hd__decap_6 abstract view
.subckt sky130_fd_sc_hd__decap_6 VGND VNB VPB VPWR
.ends

* Black-box entry subcircuit for sky130_fd_sc_hd__fill_2 abstract view
.subckt sky130_fd_sc_hd__fill_2 VGND VNB VPB VPWR
.ends

* Black-box entry subcircuit for sky130_fd_sc_hd__conb_1 abstract view
.subckt sky130_fd_sc_hd__conb_1 HI LO VGND VNB VPB VPWR
.ends

* Black-box entry subcircuit for sky130_fd_sc_hd__decap_4 abstract view
.subckt sky130_fd_sc_hd__decap_4 VGND VNB VPB VPWR
.ends

* Black-box entry subcircuit for sky130_fd_sc_hd__decap_3 abstract view
.subckt sky130_fd_sc_hd__decap_3 VGND VNB VPB VPWR
.ends

* Black-box entry subcircuit for sky130_fd_sc_hd__clkbuf_1 abstract view
.subckt sky130_fd_sc_hd__clkbuf_1 A X VGND VNB VPB VPWR
.ends

* Black-box entry subcircuit for sky130_fd_sc_hd__diode_2 abstract view
.subckt sky130_fd_sc_hd__diode_2 DIODE VGND VNB VPB VPWR
.ends

* Black-box entry subcircuit for sky130_fd_sc_hd__tapvpwrvgnd_1 abstract view
.subckt sky130_fd_sc_hd__tapvpwrvgnd_1 VGND VPWR
.ends

* Black-box entry subcircuit for sky130_fd_sc_hd__buf_4 abstract view
.subckt sky130_fd_sc_hd__buf_4 A X VGND VNB VPB VPWR
.ends

* Black-box entry subcircuit for sky130_fd_sc_hd__decap_8 abstract view
.subckt sky130_fd_sc_hd__decap_8 VGND VNB VPB VPWR
.ends

* Black-box entry subcircuit for sky130_fd_sc_hd__buf_2 abstract view
.subckt sky130_fd_sc_hd__buf_2 A X VGND VNB VPB VPWR
.ends

* Black-box entry subcircuit for sky130_fd_sc_hd__clkbuf_16 abstract view
.subckt sky130_fd_sc_hd__clkbuf_16 A X VGND VNB VPB VPWR
.ends

.subckt sb_8__8_ bottom_left_grid_pin_42_ bottom_left_grid_pin_43_ bottom_left_grid_pin_44_
+ bottom_left_grid_pin_45_ bottom_left_grid_pin_46_ bottom_left_grid_pin_47_ bottom_left_grid_pin_48_
+ bottom_left_grid_pin_49_ bottom_right_grid_pin_1_ ccff_head ccff_tail chanx_left_in[0]
+ chanx_left_in[10] chanx_left_in[11] chanx_left_in[12] chanx_left_in[13] chanx_left_in[14]
+ chanx_left_in[15] chanx_left_in[16] chanx_left_in[17] chanx_left_in[18] chanx_left_in[19]
+ chanx_left_in[1] chanx_left_in[2] chanx_left_in[3] chanx_left_in[4] chanx_left_in[5]
+ chanx_left_in[6] chanx_left_in[7] chanx_left_in[8] chanx_left_in[9] chanx_left_out[0]
+ chanx_left_out[10] chanx_left_out[11] chanx_left_out[12] chanx_left_out[13] chanx_left_out[14]
+ chanx_left_out[15] chanx_left_out[16] chanx_left_out[17] chanx_left_out[18] chanx_left_out[19]
+ chanx_left_out[1] chanx_left_out[2] chanx_left_out[3] chanx_left_out[4] chanx_left_out[5]
+ chanx_left_out[6] chanx_left_out[7] chanx_left_out[8] chanx_left_out[9] chany_bottom_in[0]
+ chany_bottom_in[10] chany_bottom_in[11] chany_bottom_in[12] chany_bottom_in[13]
+ chany_bottom_in[14] chany_bottom_in[15] chany_bottom_in[16] chany_bottom_in[17]
+ chany_bottom_in[18] chany_bottom_in[19] chany_bottom_in[1] chany_bottom_in[2] chany_bottom_in[3]
+ chany_bottom_in[4] chany_bottom_in[5] chany_bottom_in[6] chany_bottom_in[7] chany_bottom_in[8]
+ chany_bottom_in[9] chany_bottom_out[0] chany_bottom_out[10] chany_bottom_out[11]
+ chany_bottom_out[12] chany_bottom_out[13] chany_bottom_out[14] chany_bottom_out[15]
+ chany_bottom_out[16] chany_bottom_out[17] chany_bottom_out[18] chany_bottom_out[19]
+ chany_bottom_out[1] chany_bottom_out[2] chany_bottom_out[3] chany_bottom_out[4]
+ chany_bottom_out[5] chany_bottom_out[6] chany_bottom_out[7] chany_bottom_out[8]
+ chany_bottom_out[9] left_bottom_grid_pin_34_ left_bottom_grid_pin_35_ left_bottom_grid_pin_36_
+ left_bottom_grid_pin_37_ left_bottom_grid_pin_38_ left_bottom_grid_pin_39_ left_bottom_grid_pin_40_
+ left_bottom_grid_pin_41_ left_top_grid_pin_1_ prog_clk VPWR VGND
XFILLER_22_166 VGND VGND VPWR VPWR sky130_fd_sc_hd__decap_12
XFILLER_26_30 VGND VGND VPWR VPWR sky130_fd_sc_hd__fill_1
Xmem_left_track_17.sky130_fd_sc_hd__dfxtp_1_0_ mux_left_track_15.mux_l2_in_0_/S mux_left_track_17.mux_l1_in_0_/S
+ clkbuf_3_0_0_prog_clk/X VGND VGND VPWR VPWR sky130_fd_sc_hd__dfxtp_1
Xmux_bottom_track_3.mux_l1_in_1_ bottom_left_grid_pin_48_ bottom_left_grid_pin_46_
+ mux_bottom_track_3.mux_l1_in_0_/S mux_bottom_track_3.mux_l1_in_1_/X VGND VGND VPWR
+ VPWR sky130_fd_sc_hd__mux2_1
XFILLER_8_170 VGND VGND VPWR VPWR sky130_fd_sc_hd__decap_6
XFILLER_12_43 VGND VGND VPWR VPWR sky130_fd_sc_hd__fill_2
XFILLER_12_32 VGND VGND VPWR VPWR sky130_fd_sc_hd__fill_2
XFILLER_5_184 VGND VGND VPWR VPWR sky130_fd_sc_hd__decap_12
X_062_ _062_/HI _062_/LO VGND VGND VPWR VPWR sky130_fd_sc_hd__conb_1
XFILLER_9_88 VGND VGND VPWR VPWR sky130_fd_sc_hd__decap_4
XFILLER_9_77 VGND VGND VPWR VPWR sky130_fd_sc_hd__fill_2
XFILLER_0_46 VGND VGND VPWR VPWR sky130_fd_sc_hd__decap_3
XFILLER_2_132 VGND VGND VPWR VPWR sky130_fd_sc_hd__fill_2
XFILLER_2_187 VGND VGND VPWR VPWR sky130_fd_sc_hd__decap_12
Xclkbuf_3_4_0_prog_clk clkbuf_2_2_0_prog_clk/X clkbuf_3_4_0_prog_clk/X VGND VGND VPWR
+ VPWR sky130_fd_sc_hd__clkbuf_1
X_045_ _045_/HI _045_/LO VGND VGND VPWR VPWR sky130_fd_sc_hd__conb_1
Xmux_bottom_track_17.mux_l1_in_0_ chanx_left_in[9] bottom_left_grid_pin_45_ mux_bottom_track_17.mux_l1_in_0_/S
+ mux_bottom_track_17.mux_l1_in_0_/X VGND VGND VPWR VPWR sky130_fd_sc_hd__mux2_1
XFILLER_29_74 VGND VGND VPWR VPWR sky130_fd_sc_hd__decap_12
XFILLER_20_65 VGND VGND VPWR VPWR sky130_fd_sc_hd__fill_1
XFILLER_20_21 VGND VGND VPWR VPWR sky130_fd_sc_hd__fill_2
Xmux_bottom_track_29.mux_l2_in_0_ _067_/HI mux_bottom_track_29.mux_l1_in_0_/X mux_bottom_track_29.mux_l2_in_0_/S
+ mux_bottom_track_29.mux_l2_in_0_/X VGND VGND VPWR VPWR sky130_fd_sc_hd__mux2_1
XANTENNA_5 chany_bottom_in[7] VGND VGND VPWR VPWR sky130_fd_sc_hd__diode_2
XFILLER_13_3 VGND VGND VPWR VPWR sky130_fd_sc_hd__decap_4
XFILLER_6_89 VGND VGND VPWR VPWR sky130_fd_sc_hd__decap_3
XFILLER_15_32 VGND VGND VPWR VPWR sky130_fd_sc_hd__decap_3
XFILLER_15_21 VGND VGND VPWR VPWR sky130_fd_sc_hd__fill_2
XFILLER_1_219 VGND VGND VPWR VPWR sky130_fd_sc_hd__fill_1
XFILLER_1_208 VGND VGND VPWR VPWR sky130_fd_sc_hd__fill_1
XPHY_181 VGND VPWR sky130_fd_sc_hd__tapvpwrvgnd_1
XFILLER_31_123 VGND VGND VPWR VPWR sky130_fd_sc_hd__decap_12
XFILLER_31_86 VGND VGND VPWR VPWR sky130_fd_sc_hd__decap_12
XPHY_170 VGND VPWR sky130_fd_sc_hd__tapvpwrvgnd_1
Xmux_bottom_track_3.sky130_fd_sc_hd__buf_4_0_ mux_bottom_track_3.mux_l3_in_0_/X _108_/A
+ VGND VGND VPWR VPWR sky130_fd_sc_hd__buf_4
XFILLER_22_178 VGND VGND VPWR VPWR sky130_fd_sc_hd__decap_12
XFILLER_22_101 VGND VGND VPWR VPWR sky130_fd_sc_hd__decap_12
XFILLER_26_97 VGND VGND VPWR VPWR sky130_fd_sc_hd__fill_1
XFILLER_26_86 VGND VGND VPWR VPWR sky130_fd_sc_hd__decap_6
XFILLER_13_123 VGND VGND VPWR VPWR sky130_fd_sc_hd__decap_12
Xmux_bottom_track_3.mux_l1_in_0_ bottom_left_grid_pin_44_ bottom_left_grid_pin_42_
+ mux_bottom_track_3.mux_l1_in_0_/S mux_bottom_track_3.mux_l1_in_0_/X VGND VGND VPWR
+ VPWR sky130_fd_sc_hd__mux2_1
XFILLER_18_215 VGND VGND VPWR VPWR sky130_fd_sc_hd__decap_4
XFILLER_10_137 VGND VGND VPWR VPWR sky130_fd_sc_hd__decap_12
XFILLER_5_196 VGND VGND VPWR VPWR sky130_fd_sc_hd__decap_12
XFILLER_23_43 VGND VGND VPWR VPWR sky130_fd_sc_hd__decap_6
XFILLER_23_32 VGND VGND VPWR VPWR sky130_fd_sc_hd__fill_2
XFILLER_0_58 VGND VGND VPWR VPWR sky130_fd_sc_hd__decap_4
XFILLER_2_199 VGND VGND VPWR VPWR sky130_fd_sc_hd__decap_8
X_061_ _061_/HI _061_/LO VGND VGND VPWR VPWR sky130_fd_sc_hd__conb_1
XFILLER_9_23 VGND VGND VPWR VPWR sky130_fd_sc_hd__decap_4
Xmux_left_track_9.sky130_fd_sc_hd__buf_4_0_ mux_left_track_9.mux_l2_in_0_/X _085_/A
+ VGND VGND VPWR VPWR sky130_fd_sc_hd__buf_4
X_044_ _044_/HI _044_/LO VGND VGND VPWR VPWR sky130_fd_sc_hd__conb_1
XFILLER_18_32 VGND VGND VPWR VPWR sky130_fd_sc_hd__decap_3
XFILLER_7_203 VGND VGND VPWR VPWR sky130_fd_sc_hd__decap_12
XFILLER_29_107 VGND VGND VPWR VPWR sky130_fd_sc_hd__decap_12
Xmem_bottom_track_25.sky130_fd_sc_hd__dfxtp_1_1_ mux_bottom_track_25.mux_l1_in_1_/S
+ mux_bottom_track_25.mux_l2_in_0_/S clkbuf_3_5_0_prog_clk/X VGND VGND VPWR VPWR sky130_fd_sc_hd__dfxtp_1
Xmux_left_track_31.sky130_fd_sc_hd__buf_4_0_ mux_left_track_31.mux_l2_in_0_/X _074_/A
+ VGND VGND VPWR VPWR sky130_fd_sc_hd__buf_4
XFILLER_29_86 VGND VGND VPWR VPWR sky130_fd_sc_hd__decap_12
Xmem_left_track_35.sky130_fd_sc_hd__dfxtp_1_1_ mux_left_track_35.mux_l1_in_0_/S mux_left_track_35.mux_l2_in_0_/S
+ clkbuf_3_2_0_prog_clk/X VGND VGND VPWR VPWR sky130_fd_sc_hd__dfxtp_1
XANTENNA_6 chany_bottom_in[8] VGND VGND VPWR VPWR sky130_fd_sc_hd__diode_2
XFILLER_19_184 VGND VGND VPWR VPWR sky130_fd_sc_hd__decap_12
XFILLER_25_110 VGND VGND VPWR VPWR sky130_fd_sc_hd__decap_12
XPHY_182 VGND VPWR sky130_fd_sc_hd__tapvpwrvgnd_1
XFILLER_31_135 VGND VGND VPWR VPWR sky130_fd_sc_hd__decap_12
XFILLER_31_98 VGND VGND VPWR VPWR sky130_fd_sc_hd__decap_12
XPHY_171 VGND VPWR sky130_fd_sc_hd__tapvpwrvgnd_1
XPHY_160 VGND VPWR sky130_fd_sc_hd__tapvpwrvgnd_1
XFILLER_16_154 VGND VGND VPWR VPWR sky130_fd_sc_hd__decap_12
XFILLER_16_121 VGND VGND VPWR VPWR sky130_fd_sc_hd__decap_12
XFILLER_30_190 VGND VGND VPWR VPWR sky130_fd_sc_hd__decap_12
Xmux_left_track_25.sky130_fd_sc_hd__buf_4_0_ mux_left_track_25.mux_l2_in_0_/X _077_/A
+ VGND VGND VPWR VPWR sky130_fd_sc_hd__buf_4
XFILLER_22_113 VGND VGND VPWR VPWR sky130_fd_sc_hd__decap_12
Xmem_bottom_track_3.sky130_fd_sc_hd__dfxtp_1_2_ mux_bottom_track_3.mux_l2_in_1_/S
+ mux_bottom_track_3.mux_l3_in_0_/S clkbuf_3_7_0_prog_clk/X VGND VGND VPWR VPWR sky130_fd_sc_hd__dfxtp_1
XFILLER_26_32 VGND VGND VPWR VPWR sky130_fd_sc_hd__fill_2
XFILLER_26_10 VGND VGND VPWR VPWR sky130_fd_sc_hd__fill_2
XFILLER_13_135 VGND VGND VPWR VPWR sky130_fd_sc_hd__decap_12
Xmux_bottom_track_29.mux_l1_in_0_ chanx_left_in[15] bottom_left_grid_pin_43_ mux_bottom_track_29.mux_l1_in_0_/S
+ mux_bottom_track_29.mux_l1_in_0_/X VGND VGND VPWR VPWR sky130_fd_sc_hd__mux2_1
XFILLER_9_139 VGND VGND VPWR VPWR sky130_fd_sc_hd__fill_2
XFILLER_12_190 VGND VGND VPWR VPWR sky130_fd_sc_hd__decap_12
XFILLER_3_58 VGND VGND VPWR VPWR sky130_fd_sc_hd__decap_3
XFILLER_8_183 VGND VGND VPWR VPWR sky130_fd_sc_hd__decap_12
XFILLER_10_149 VGND VGND VPWR VPWR sky130_fd_sc_hd__decap_4
XFILLER_6_109 VGND VGND VPWR VPWR sky130_fd_sc_hd__decap_3
Xmux_left_track_19.sky130_fd_sc_hd__buf_4_0_ mux_left_track_19.mux_l2_in_0_/X _080_/A
+ VGND VGND VPWR VPWR sky130_fd_sc_hd__buf_4
Xmux_left_track_7.mux_l3_in_0_ mux_left_track_7.mux_l2_in_1_/X mux_left_track_7.mux_l2_in_0_/X
+ mux_left_track_7.mux_l3_in_0_/S mux_left_track_7.mux_l3_in_0_/X VGND VGND VPWR VPWR
+ sky130_fd_sc_hd__mux2_1
XFILLER_24_219 VGND VGND VPWR VPWR sky130_fd_sc_hd__fill_1
XFILLER_15_219 VGND VGND VPWR VPWR sky130_fd_sc_hd__fill_1
XFILLER_23_99 VGND VGND VPWR VPWR sky130_fd_sc_hd__fill_2
XFILLER_3_3 VGND VGND VPWR VPWR sky130_fd_sc_hd__decap_3
X_060_ _060_/HI _060_/LO VGND VGND VPWR VPWR sky130_fd_sc_hd__conb_1
X_043_ _043_/HI _043_/LO VGND VGND VPWR VPWR sky130_fd_sc_hd__conb_1
XFILLER_18_77 VGND VGND VPWR VPWR sky130_fd_sc_hd__decap_4
Xmux_left_track_7.mux_l2_in_1_ _055_/HI left_bottom_grid_pin_40_ mux_left_track_7.mux_l2_in_1_/S
+ mux_left_track_7.mux_l2_in_1_/X VGND VGND VPWR VPWR sky130_fd_sc_hd__mux2_1
XFILLER_7_215 VGND VGND VPWR VPWR sky130_fd_sc_hd__decap_4
Xmem_bottom_track_25.sky130_fd_sc_hd__dfxtp_1_0_ mux_bottom_track_23.mux_l2_in_0_/S
+ mux_bottom_track_25.mux_l1_in_1_/S clkbuf_3_5_0_prog_clk/X VGND VGND VPWR VPWR sky130_fd_sc_hd__dfxtp_1
XFILLER_29_119 VGND VGND VPWR VPWR sky130_fd_sc_hd__decap_3
XFILLER_29_98 VGND VGND VPWR VPWR sky130_fd_sc_hd__decap_3
XFILLER_28_152 VGND VGND VPWR VPWR sky130_fd_sc_hd__fill_1
XANTENNA_7 chany_bottom_in[9] VGND VGND VPWR VPWR sky130_fd_sc_hd__diode_2
Xmem_left_track_35.sky130_fd_sc_hd__dfxtp_1_0_ mux_left_track_33.mux_l2_in_0_/S mux_left_track_35.mux_l1_in_0_/S
+ clkbuf_3_2_0_prog_clk/X VGND VGND VPWR VPWR sky130_fd_sc_hd__dfxtp_1
XFILLER_19_196 VGND VGND VPWR VPWR sky130_fd_sc_hd__decap_12
XFILLER_31_11 VGND VGND VPWR VPWR sky130_fd_sc_hd__fill_2
XFILLER_16_166 VGND VGND VPWR VPWR sky130_fd_sc_hd__decap_12
XFILLER_16_133 VGND VGND VPWR VPWR sky130_fd_sc_hd__decap_12
XFILLER_15_67 VGND VGND VPWR VPWR sky130_fd_sc_hd__fill_2
XFILLER_15_56 VGND VGND VPWR VPWR sky130_fd_sc_hd__decap_4
XPHY_183 VGND VPWR sky130_fd_sc_hd__tapvpwrvgnd_1
XFILLER_31_147 VGND VGND VPWR VPWR sky130_fd_sc_hd__decap_12
XPHY_172 VGND VPWR sky130_fd_sc_hd__tapvpwrvgnd_1
XPHY_161 VGND VPWR sky130_fd_sc_hd__tapvpwrvgnd_1
XPHY_150 VGND VPWR sky130_fd_sc_hd__tapvpwrvgnd_1
XFILLER_22_125 VGND VGND VPWR VPWR sky130_fd_sc_hd__decap_12
Xclkbuf_2_1_0_prog_clk clkbuf_2_1_0_prog_clk/A clkbuf_3_3_0_prog_clk/A VGND VGND VPWR
+ VPWR sky130_fd_sc_hd__clkbuf_1
XFILLER_13_147 VGND VGND VPWR VPWR sky130_fd_sc_hd__decap_12
Xmem_bottom_track_3.sky130_fd_sc_hd__dfxtp_1_1_ mux_bottom_track_3.mux_l1_in_0_/S
+ mux_bottom_track_3.mux_l2_in_1_/S clkbuf_3_7_0_prog_clk/X VGND VGND VPWR VPWR sky130_fd_sc_hd__dfxtp_1
XFILLER_3_15 VGND VGND VPWR VPWR sky130_fd_sc_hd__fill_2
XFILLER_8_195 VGND VGND VPWR VPWR sky130_fd_sc_hd__decap_12
XFILLER_12_79 VGND VGND VPWR VPWR sky130_fd_sc_hd__fill_2
Xmux_left_track_15.mux_l2_in_0_ _040_/HI mux_left_track_15.mux_l1_in_0_/X mux_left_track_15.mux_l2_in_0_/S
+ mux_left_track_15.mux_l2_in_0_/X VGND VGND VPWR VPWR sky130_fd_sc_hd__mux2_1
XFILLER_5_121 VGND VGND VPWR VPWR sky130_fd_sc_hd__fill_1
XFILLER_5_132 VGND VGND VPWR VPWR sky130_fd_sc_hd__decap_6
XFILLER_29_3 VGND VGND VPWR VPWR sky130_fd_sc_hd__decap_4
XFILLER_9_36 VGND VGND VPWR VPWR sky130_fd_sc_hd__decap_6
XFILLER_18_56 VGND VGND VPWR VPWR sky130_fd_sc_hd__fill_2
XFILLER_18_23 VGND VGND VPWR VPWR sky130_fd_sc_hd__fill_2
X_042_ _042_/HI _042_/LO VGND VGND VPWR VPWR sky130_fd_sc_hd__conb_1
Xmux_left_track_7.mux_l2_in_0_ mux_left_track_7.mux_l1_in_1_/X mux_left_track_7.mux_l1_in_0_/X
+ mux_left_track_7.mux_l2_in_1_/S mux_left_track_7.mux_l2_in_0_/X VGND VGND VPWR VPWR
+ sky130_fd_sc_hd__mux2_1
XFILLER_20_13 VGND VGND VPWR VPWR sky130_fd_sc_hd__fill_2
XFILLER_4_219 VGND VGND VPWR VPWR sky130_fd_sc_hd__fill_1
XFILLER_29_11 VGND VGND VPWR VPWR sky130_fd_sc_hd__fill_2
Xclkbuf_3_3_0_prog_clk clkbuf_3_3_0_prog_clk/A clkbuf_3_3_0_prog_clk/X VGND VGND VPWR
+ VPWR sky130_fd_sc_hd__clkbuf_1
XFILLER_6_59 VGND VGND VPWR VPWR sky130_fd_sc_hd__fill_2
XFILLER_31_23 VGND VGND VPWR VPWR sky130_fd_sc_hd__decap_12
XFILLER_25_123 VGND VGND VPWR VPWR sky130_fd_sc_hd__decap_12
Xmux_left_track_7.mux_l1_in_1_ left_bottom_grid_pin_38_ left_bottom_grid_pin_36_ mux_left_track_7.mux_l1_in_1_/S
+ mux_left_track_7.mux_l1_in_1_/X VGND VGND VPWR VPWR sky130_fd_sc_hd__mux2_1
XFILLER_0_211 VGND VGND VPWR VPWR sky130_fd_sc_hd__decap_6
XPHY_184 VGND VPWR sky130_fd_sc_hd__tapvpwrvgnd_1
XFILLER_31_159 VGND VGND VPWR VPWR sky130_fd_sc_hd__decap_12
XPHY_173 VGND VPWR sky130_fd_sc_hd__tapvpwrvgnd_1
XPHY_162 VGND VPWR sky130_fd_sc_hd__tapvpwrvgnd_1
XPHY_151 VGND VPWR sky130_fd_sc_hd__tapvpwrvgnd_1
XPHY_140 VGND VPWR sky130_fd_sc_hd__tapvpwrvgnd_1
XFILLER_16_178 VGND VGND VPWR VPWR sky130_fd_sc_hd__decap_12
XFILLER_16_145 VGND VGND VPWR VPWR sky130_fd_sc_hd__decap_8
XFILLER_26_67 VGND VGND VPWR VPWR sky130_fd_sc_hd__decap_4
XFILLER_22_137 VGND VGND VPWR VPWR sky130_fd_sc_hd__decap_12
XFILLER_13_104 VGND VGND VPWR VPWR sky130_fd_sc_hd__decap_12
Xmem_bottom_track_3.sky130_fd_sc_hd__dfxtp_1_0_ mux_bottom_track_1.mux_l3_in_0_/S
+ mux_bottom_track_3.mux_l1_in_0_/S clkbuf_3_7_0_prog_clk/X VGND VGND VPWR VPWR sky130_fd_sc_hd__dfxtp_1
XFILLER_13_159 VGND VGND VPWR VPWR sky130_fd_sc_hd__decap_12
XFILLER_9_108 VGND VGND VPWR VPWR sky130_fd_sc_hd__fill_2
XFILLER_10_118 VGND VGND VPWR VPWR sky130_fd_sc_hd__decap_3
XFILLER_5_166 VGND VGND VPWR VPWR sky130_fd_sc_hd__fill_2
XFILLER_2_114 VGND VGND VPWR VPWR sky130_fd_sc_hd__fill_2
XFILLER_4_81 VGND VGND VPWR VPWR sky130_fd_sc_hd__decap_8
Xmem_bottom_track_9.sky130_fd_sc_hd__dfxtp_1_1_ mux_bottom_track_9.mux_l1_in_0_/S
+ mux_bottom_track_9.mux_l2_in_0_/S clkbuf_3_4_0_prog_clk/X VGND VGND VPWR VPWR sky130_fd_sc_hd__dfxtp_1
XFILLER_9_59 VGND VGND VPWR VPWR sky130_fd_sc_hd__fill_2
XFILLER_20_202 VGND VGND VPWR VPWR sky130_fd_sc_hd__decap_12
Xmux_left_track_15.mux_l1_in_0_ left_bottom_grid_pin_36_ chany_bottom_in[6] mux_left_track_15.mux_l1_in_0_/S
+ mux_left_track_15.mux_l1_in_0_/X VGND VGND VPWR VPWR sky130_fd_sc_hd__mux2_1
X_041_ _041_/HI _041_/LO VGND VGND VPWR VPWR sky130_fd_sc_hd__conb_1
Xmux_left_track_27.mux_l2_in_0_ _046_/HI mux_left_track_27.mux_l1_in_0_/X mux_left_track_27.mux_l2_in_0_/S
+ mux_left_track_27.mux_l2_in_0_/X VGND VGND VPWR VPWR sky130_fd_sc_hd__mux2_1
XFILLER_1_60 VGND VGND VPWR VPWR sky130_fd_sc_hd__fill_1
XFILLER_28_154 VGND VGND VPWR VPWR sky130_fd_sc_hd__decap_12
XFILLER_6_49 VGND VGND VPWR VPWR sky130_fd_sc_hd__fill_1
XFILLER_31_35 VGND VGND VPWR VPWR sky130_fd_sc_hd__decap_12
XFILLER_25_135 VGND VGND VPWR VPWR sky130_fd_sc_hd__decap_12
Xmux_left_track_7.mux_l1_in_0_ left_bottom_grid_pin_34_ chany_bottom_in[2] mux_left_track_7.mux_l1_in_1_/S
+ mux_left_track_7.mux_l1_in_0_/X VGND VGND VPWR VPWR sky130_fd_sc_hd__mux2_1
Xmux_bottom_track_11.sky130_fd_sc_hd__buf_4_0_ mux_bottom_track_11.mux_l2_in_0_/X
+ _104_/A VGND VGND VPWR VPWR sky130_fd_sc_hd__buf_4
XPHY_185 VGND VPWR sky130_fd_sc_hd__tapvpwrvgnd_1
XPHY_174 VGND VPWR sky130_fd_sc_hd__tapvpwrvgnd_1
XPHY_163 VGND VPWR sky130_fd_sc_hd__tapvpwrvgnd_1
XFILLER_24_190 VGND VGND VPWR VPWR sky130_fd_sc_hd__decap_12
XPHY_152 VGND VPWR sky130_fd_sc_hd__tapvpwrvgnd_1
XPHY_141 VGND VPWR sky130_fd_sc_hd__tapvpwrvgnd_1
XPHY_130 VGND VPWR sky130_fd_sc_hd__tapvpwrvgnd_1
XFILLER_22_149 VGND VGND VPWR VPWR sky130_fd_sc_hd__decap_4
XFILLER_21_171 VGND VGND VPWR VPWR sky130_fd_sc_hd__decap_12
XFILLER_13_116 VGND VGND VPWR VPWR sky130_fd_sc_hd__decap_6
XFILLER_27_208 VGND VGND VPWR VPWR sky130_fd_sc_hd__decap_12
Xmem_bottom_track_11.sky130_fd_sc_hd__dfxtp_1_1_ mux_bottom_track_11.mux_l1_in_0_/S
+ mux_bottom_track_11.mux_l2_in_0_/S clkbuf_3_5_0_prog_clk/X VGND VGND VPWR VPWR sky130_fd_sc_hd__dfxtp_1
XFILLER_18_219 VGND VGND VPWR VPWR sky130_fd_sc_hd__fill_1
XFILLER_32_211 VGND VGND VPWR VPWR sky130_fd_sc_hd__decap_6
Xmem_left_track_21.sky130_fd_sc_hd__dfxtp_1_1_ mux_left_track_21.mux_l1_in_0_/S mux_left_track_21.mux_l2_in_0_/S
+ clkbuf_3_2_0_prog_clk/X VGND VGND VPWR VPWR sky130_fd_sc_hd__dfxtp_1
XFILLER_5_145 VGND VGND VPWR VPWR sky130_fd_sc_hd__decap_4
XFILLER_23_14 VGND VGND VPWR VPWR sky130_fd_sc_hd__fill_2
XFILLER_4_71 VGND VGND VPWR VPWR sky130_fd_sc_hd__fill_1
Xmem_bottom_track_9.sky130_fd_sc_hd__dfxtp_1_0_ mux_bottom_track_7.mux_l3_in_0_/S
+ mux_bottom_track_9.mux_l1_in_0_/S clkbuf_3_7_0_prog_clk/X VGND VGND VPWR VPWR sky130_fd_sc_hd__dfxtp_1
X_040_ _040_/HI _040_/LO VGND VGND VPWR VPWR sky130_fd_sc_hd__conb_1
XFILLER_1_3 VGND VGND VPWR VPWR sky130_fd_sc_hd__decap_6
XFILLER_28_166 VGND VGND VPWR VPWR sky130_fd_sc_hd__decap_12
XFILLER_28_122 VGND VGND VPWR VPWR sky130_fd_sc_hd__decap_12
XFILLER_20_59 VGND VGND VPWR VPWR sky130_fd_sc_hd__decap_6
XFILLER_20_48 VGND VGND VPWR VPWR sky130_fd_sc_hd__fill_2
XFILLER_19_111 VGND VGND VPWR VPWR sky130_fd_sc_hd__decap_8
XFILLER_31_47 VGND VGND VPWR VPWR sky130_fd_sc_hd__decap_12
XFILLER_25_147 VGND VGND VPWR VPWR sky130_fd_sc_hd__decap_12
Xmux_left_track_27.mux_l1_in_0_ left_bottom_grid_pin_34_ chany_bottom_in[12] mux_left_track_27.mux_l1_in_0_/S
+ mux_left_track_27.mux_l1_in_0_/X VGND VGND VPWR VPWR sky130_fd_sc_hd__mux2_1
XPHY_186 VGND VPWR sky130_fd_sc_hd__tapvpwrvgnd_1
XPHY_175 VGND VPWR sky130_fd_sc_hd__tapvpwrvgnd_1
Xmux_left_track_39.mux_l2_in_0_ _053_/HI mux_left_track_39.mux_l1_in_0_/X ccff_tail
+ mux_left_track_39.mux_l2_in_0_/X VGND VGND VPWR VPWR sky130_fd_sc_hd__mux2_1
XPHY_164 VGND VPWR sky130_fd_sc_hd__tapvpwrvgnd_1
XPHY_153 VGND VPWR sky130_fd_sc_hd__tapvpwrvgnd_1
XPHY_142 VGND VPWR sky130_fd_sc_hd__tapvpwrvgnd_1
XPHY_131 VGND VPWR sky130_fd_sc_hd__tapvpwrvgnd_1
XPHY_120 VGND VPWR sky130_fd_sc_hd__tapvpwrvgnd_1
XPHY_0 VGND VGND VPWR VPWR sky130_fd_sc_hd__decap_3
XFILLER_7_71 VGND VGND VPWR VPWR sky130_fd_sc_hd__decap_8
Xmux_bottom_track_13.mux_l2_in_0_ _059_/HI mux_bottom_track_13.mux_l1_in_0_/X mux_bottom_track_13.mux_l2_in_0_/S
+ mux_bottom_track_13.mux_l2_in_0_/X VGND VGND VPWR VPWR sky130_fd_sc_hd__mux2_1
Xmem_bottom_track_11.sky130_fd_sc_hd__dfxtp_1_0_ mux_bottom_track_9.mux_l2_in_0_/S
+ mux_bottom_track_11.mux_l1_in_0_/S clkbuf_3_4_0_prog_clk/X VGND VGND VPWR VPWR sky130_fd_sc_hd__dfxtp_1
XFILLER_8_176 VGND VGND VPWR VPWR sky130_fd_sc_hd__fill_1
Xmem_left_track_21.sky130_fd_sc_hd__dfxtp_1_0_ mux_left_track_19.mux_l2_in_0_/S mux_left_track_21.mux_l1_in_0_/S
+ clkbuf_3_2_0_prog_clk/X VGND VGND VPWR VPWR sky130_fd_sc_hd__dfxtp_1
Xclkbuf_2_0_0_prog_clk clkbuf_2_1_0_prog_clk/A clkbuf_3_0_0_prog_clk/A VGND VGND VPWR
+ VPWR sky130_fd_sc_hd__clkbuf_1
XFILLER_23_59 VGND VGND VPWR VPWR sky130_fd_sc_hd__fill_2
Xmux_bottom_track_27.sky130_fd_sc_hd__buf_4_0_ mux_bottom_track_27.mux_l2_in_0_/X
+ _096_/A VGND VGND VPWR VPWR sky130_fd_sc_hd__buf_4
XFILLER_13_92 VGND VGND VPWR VPWR sky130_fd_sc_hd__decap_12
XFILLER_20_215 VGND VGND VPWR VPWR sky130_fd_sc_hd__decap_4
XFILLER_7_219 VGND VGND VPWR VPWR sky130_fd_sc_hd__fill_1
Xmem_bottom_track_17.sky130_fd_sc_hd__dfxtp_1_1_ mux_bottom_track_17.mux_l1_in_0_/S
+ mux_bottom_track_17.mux_l2_in_0_/S clkbuf_3_6_0_prog_clk/X VGND VGND VPWR VPWR sky130_fd_sc_hd__dfxtp_1
XFILLER_27_3 VGND VGND VPWR VPWR sky130_fd_sc_hd__fill_1
XFILLER_24_91 VGND VGND VPWR VPWR sky130_fd_sc_hd__fill_1
X_099_ _099_/A chany_bottom_out[10] VGND VGND VPWR VPWR sky130_fd_sc_hd__buf_2
XFILLER_29_25 VGND VGND VPWR VPWR sky130_fd_sc_hd__decap_12
XFILLER_28_134 VGND VGND VPWR VPWR sky130_fd_sc_hd__decap_12
XFILLER_20_27 VGND VGND VPWR VPWR sky130_fd_sc_hd__decap_4
Xmem_left_track_27.sky130_fd_sc_hd__dfxtp_1_1_ mux_left_track_27.mux_l1_in_0_/S mux_left_track_27.mux_l2_in_0_/S
+ clkbuf_3_3_0_prog_clk/X VGND VGND VPWR VPWR sky130_fd_sc_hd__dfxtp_1
XFILLER_1_95 VGND VGND VPWR VPWR sky130_fd_sc_hd__fill_2
XFILLER_1_84 VGND VGND VPWR VPWR sky130_fd_sc_hd__fill_2
XFILLER_1_62 VGND VGND VPWR VPWR sky130_fd_sc_hd__decap_6
XFILLER_28_178 VGND VGND VPWR VPWR sky130_fd_sc_hd__decap_12
XFILLER_19_123 VGND VGND VPWR VPWR sky130_fd_sc_hd__decap_12
XFILLER_3_200 VGND VGND VPWR VPWR sky130_fd_sc_hd__fill_1
XFILLER_6_18 VGND VGND VPWR VPWR sky130_fd_sc_hd__fill_2
XFILLER_6_29 VGND VGND VPWR VPWR sky130_fd_sc_hd__fill_2
XFILLER_25_159 VGND VGND VPWR VPWR sky130_fd_sc_hd__decap_12
XPHY_187 VGND VPWR sky130_fd_sc_hd__tapvpwrvgnd_1
XFILLER_31_59 VGND VGND VPWR VPWR sky130_fd_sc_hd__fill_2
XPHY_176 VGND VPWR sky130_fd_sc_hd__tapvpwrvgnd_1
XPHY_165 VGND VPWR sky130_fd_sc_hd__tapvpwrvgnd_1
XPHY_154 VGND VPWR sky130_fd_sc_hd__tapvpwrvgnd_1
XPHY_143 VGND VPWR sky130_fd_sc_hd__tapvpwrvgnd_1
XPHY_132 VGND VPWR sky130_fd_sc_hd__tapvpwrvgnd_1
XPHY_121 VGND VPWR sky130_fd_sc_hd__tapvpwrvgnd_1
XPHY_110 VGND VPWR sky130_fd_sc_hd__tapvpwrvgnd_1
XPHY_1 VGND VGND VPWR VPWR sky130_fd_sc_hd__decap_3
Xclkbuf_3_2_0_prog_clk clkbuf_3_3_0_prog_clk/A clkbuf_3_2_0_prog_clk/X VGND VGND VPWR
+ VPWR sky130_fd_sc_hd__clkbuf_1
XFILLER_21_184 VGND VGND VPWR VPWR sky130_fd_sc_hd__decap_12
Xmux_left_track_39.mux_l1_in_0_ left_bottom_grid_pin_40_ chany_bottom_in[18] mux_left_track_39.mux_l1_in_0_/S
+ mux_left_track_39.mux_l1_in_0_/X VGND VGND VPWR VPWR sky130_fd_sc_hd__mux2_1
XFILLER_23_49 VGND VGND VPWR VPWR sky130_fd_sc_hd__fill_1
XFILLER_23_38 VGND VGND VPWR VPWR sky130_fd_sc_hd__fill_2
XFILLER_14_202 VGND VGND VPWR VPWR sky130_fd_sc_hd__decap_12
Xmux_bottom_track_13.mux_l1_in_0_ chanx_left_in[7] bottom_left_grid_pin_43_ mux_bottom_track_13.mux_l1_in_0_/S
+ mux_bottom_track_13.mux_l1_in_0_/X VGND VGND VPWR VPWR sky130_fd_sc_hd__mux2_1
XFILLER_9_18 VGND VGND VPWR VPWR sky130_fd_sc_hd__fill_2
XFILLER_1_161 VGND VGND VPWR VPWR sky130_fd_sc_hd__fill_2
Xmux_bottom_track_25.mux_l2_in_0_ mux_bottom_track_25.mux_l1_in_1_/X mux_bottom_track_25.mux_l1_in_0_/X
+ mux_bottom_track_25.mux_l2_in_0_/S mux_bottom_track_25.mux_l2_in_0_/X VGND VGND
+ VPWR VPWR sky130_fd_sc_hd__mux2_1
XFILLER_18_38 VGND VGND VPWR VPWR sky130_fd_sc_hd__fill_2
Xmem_bottom_track_17.sky130_fd_sc_hd__dfxtp_1_0_ mux_bottom_track_15.mux_l2_in_0_/S
+ mux_bottom_track_17.mux_l1_in_0_/S clkbuf_3_6_0_prog_clk/X VGND VGND VPWR VPWR sky130_fd_sc_hd__dfxtp_1
X_098_ _098_/A chany_bottom_out[11] VGND VGND VPWR VPWR sky130_fd_sc_hd__buf_2
Xmem_left_track_27.sky130_fd_sc_hd__dfxtp_1_0_ mux_left_track_25.mux_l2_in_0_/S mux_left_track_27.mux_l1_in_0_/S
+ clkbuf_3_1_0_prog_clk/X VGND VGND VPWR VPWR sky130_fd_sc_hd__dfxtp_1
XFILLER_29_37 VGND VGND VPWR VPWR sky130_fd_sc_hd__decap_12
XFILLER_28_146 VGND VGND VPWR VPWR sky130_fd_sc_hd__decap_6
Xmux_bottom_track_9.mux_l2_in_0_ _036_/HI mux_bottom_track_9.mux_l1_in_0_/X mux_bottom_track_9.mux_l2_in_0_/S
+ mux_bottom_track_9.mux_l2_in_0_/X VGND VGND VPWR VPWR sky130_fd_sc_hd__mux2_1
Xmux_bottom_track_25.mux_l1_in_1_ _065_/HI chanx_left_in[13] mux_bottom_track_25.mux_l1_in_1_/S
+ mux_bottom_track_25.mux_l1_in_1_/X VGND VGND VPWR VPWR sky130_fd_sc_hd__mux2_1
XFILLER_19_135 VGND VGND VPWR VPWR sky130_fd_sc_hd__decap_12
XFILLER_18_190 VGND VGND VPWR VPWR sky130_fd_sc_hd__decap_12
XPHY_100 VGND VPWR sky130_fd_sc_hd__tapvpwrvgnd_1
XPHY_177 VGND VPWR sky130_fd_sc_hd__tapvpwrvgnd_1
XPHY_166 VGND VPWR sky130_fd_sc_hd__tapvpwrvgnd_1
XPHY_155 VGND VPWR sky130_fd_sc_hd__tapvpwrvgnd_1
XPHY_144 VGND VPWR sky130_fd_sc_hd__tapvpwrvgnd_1
XPHY_133 VGND VPWR sky130_fd_sc_hd__tapvpwrvgnd_1
XFILLER_15_171 VGND VGND VPWR VPWR sky130_fd_sc_hd__decap_12
XPHY_122 VGND VPWR sky130_fd_sc_hd__tapvpwrvgnd_1
XPHY_111 VGND VPWR sky130_fd_sc_hd__tapvpwrvgnd_1
XPHY_2 VGND VGND VPWR VPWR sky130_fd_sc_hd__decap_3
XFILLER_30_141 VGND VGND VPWR VPWR sky130_fd_sc_hd__decap_12
XFILLER_21_196 VGND VGND VPWR VPWR sky130_fd_sc_hd__decap_12
Xmux_left_track_5.sky130_fd_sc_hd__buf_4_0_ mux_left_track_5.mux_l3_in_0_/X _087_/A
+ VGND VGND VPWR VPWR sky130_fd_sc_hd__buf_4
XFILLER_7_95 VGND VGND VPWR VPWR sky130_fd_sc_hd__fill_2
XFILLER_16_60 VGND VGND VPWR VPWR sky130_fd_sc_hd__fill_1
XFILLER_12_29 VGND VGND VPWR VPWR sky130_fd_sc_hd__fill_2
XFILLER_12_18 VGND VGND VPWR VPWR sky130_fd_sc_hd__fill_2
Xmem_left_track_1.sky130_fd_sc_hd__dfxtp_1_2_ mux_left_track_1.mux_l2_in_0_/S mux_left_track_1.mux_l3_in_0_/S
+ clkbuf_3_6_0_prog_clk/X VGND VGND VPWR VPWR sky130_fd_sc_hd__dfxtp_1
XFILLER_4_41 VGND VGND VPWR VPWR sky130_fd_sc_hd__decap_8
Xmux_left_track_21.sky130_fd_sc_hd__buf_4_0_ mux_left_track_21.mux_l2_in_0_/X _079_/A
+ VGND VGND VPWR VPWR sky130_fd_sc_hd__buf_4
XFILLER_1_184 VGND VGND VPWR VPWR sky130_fd_sc_hd__decap_8
XFILLER_1_140 VGND VGND VPWR VPWR sky130_fd_sc_hd__fill_2
X_097_ _097_/A chany_bottom_out[12] VGND VGND VPWR VPWR sky130_fd_sc_hd__buf_2
XFILLER_29_49 VGND VGND VPWR VPWR sky130_fd_sc_hd__decap_12
Xmux_left_track_15.sky130_fd_sc_hd__buf_4_0_ mux_left_track_15.mux_l2_in_0_/X _082_/A
+ VGND VGND VPWR VPWR sky130_fd_sc_hd__buf_4
Xmux_bottom_track_25.mux_l1_in_0_ bottom_left_grid_pin_49_ bottom_right_grid_pin_1_
+ mux_bottom_track_25.mux_l1_in_1_/S mux_bottom_track_25.mux_l1_in_0_/X VGND VGND
+ VPWR VPWR sky130_fd_sc_hd__mux2_1
XFILLER_32_3 VGND VGND VPWR VPWR sky130_fd_sc_hd__decap_4
XFILLER_19_147 VGND VGND VPWR VPWR sky130_fd_sc_hd__decap_12
XFILLER_19_71 VGND VGND VPWR VPWR sky130_fd_sc_hd__decap_12
XFILLER_10_84 VGND VGND VPWR VPWR sky130_fd_sc_hd__decap_8
XFILLER_31_17 VGND VGND VPWR VPWR sky130_fd_sc_hd__fill_2
XPHY_178 VGND VPWR sky130_fd_sc_hd__tapvpwrvgnd_1
XPHY_167 VGND VPWR sky130_fd_sc_hd__tapvpwrvgnd_1
XPHY_156 VGND VPWR sky130_fd_sc_hd__tapvpwrvgnd_1
XPHY_145 VGND VPWR sky130_fd_sc_hd__tapvpwrvgnd_1
XPHY_134 VGND VPWR sky130_fd_sc_hd__tapvpwrvgnd_1
XPHY_123 VGND VPWR sky130_fd_sc_hd__tapvpwrvgnd_1
XPHY_112 VGND VPWR sky130_fd_sc_hd__tapvpwrvgnd_1
XPHY_101 VGND VPWR sky130_fd_sc_hd__tapvpwrvgnd_1
XPHY_3 VGND VGND VPWR VPWR sky130_fd_sc_hd__decap_3
XFILLER_7_41 VGND VGND VPWR VPWR sky130_fd_sc_hd__decap_4
Xmux_left_track_3.mux_l3_in_0_ mux_left_track_3.mux_l2_in_1_/X mux_left_track_3.mux_l2_in_0_/X
+ mux_left_track_3.mux_l3_in_0_/S mux_left_track_3.mux_l3_in_0_/X VGND VGND VPWR VPWR
+ sky130_fd_sc_hd__mux2_1
Xmux_bottom_track_9.mux_l1_in_0_ chanx_left_in[5] bottom_right_grid_pin_1_ mux_bottom_track_9.mux_l1_in_0_/S
+ mux_bottom_track_9.mux_l1_in_0_/X VGND VGND VPWR VPWR sky130_fd_sc_hd__mux2_1
Xmux_bottom_track_9.sky130_fd_sc_hd__buf_4_0_ mux_bottom_track_9.mux_l2_in_0_/X _105_/A
+ VGND VGND VPWR VPWR sky130_fd_sc_hd__buf_4
Xmem_left_track_1.sky130_fd_sc_hd__dfxtp_1_1_ mux_left_track_1.mux_l1_in_1_/S mux_left_track_1.mux_l2_in_0_/S
+ clkbuf_3_6_0_prog_clk/X VGND VGND VPWR VPWR sky130_fd_sc_hd__dfxtp_1
XFILLER_5_138 VGND VGND VPWR VPWR sky130_fd_sc_hd__fill_1
XFILLER_5_149 VGND VGND VPWR VPWR sky130_fd_sc_hd__fill_1
XFILLER_17_212 VGND VGND VPWR VPWR sky130_fd_sc_hd__decap_8
Xmux_left_track_3.mux_l2_in_1_ _048_/HI left_bottom_grid_pin_40_ mux_left_track_3.mux_l2_in_0_/S
+ mux_left_track_3.mux_l2_in_1_/X VGND VGND VPWR VPWR sky130_fd_sc_hd__mux2_1
XFILLER_14_215 VGND VGND VPWR VPWR sky130_fd_sc_hd__decap_4
XFILLER_13_62 VGND VGND VPWR VPWR sky130_fd_sc_hd__decap_4
XFILLER_1_196 VGND VGND VPWR VPWR sky130_fd_sc_hd__decap_12
XFILLER_1_152 VGND VGND VPWR VPWR sky130_fd_sc_hd__decap_3
XFILLER_18_29 VGND VGND VPWR VPWR sky130_fd_sc_hd__fill_2
Xmem_left_track_7.sky130_fd_sc_hd__dfxtp_1_2_ mux_left_track_7.mux_l2_in_1_/S mux_left_track_7.mux_l3_in_0_/S
+ clkbuf_3_1_0_prog_clk/X VGND VGND VPWR VPWR sky130_fd_sc_hd__dfxtp_1
X_096_ _096_/A chany_bottom_out[13] VGND VGND VPWR VPWR sky130_fd_sc_hd__buf_2
XFILLER_6_211 VGND VGND VPWR VPWR sky130_fd_sc_hd__decap_3
XFILLER_19_159 VGND VGND VPWR VPWR sky130_fd_sc_hd__decap_12
XFILLER_10_63 VGND VGND VPWR VPWR sky130_fd_sc_hd__decap_6