* NGSPICE file created from sb_8__0_.ext - technology: sky130A

* Black-box entry subcircuit for sky130_fd_sc_hd__decap_12 abstract view
.subckt sky130_fd_sc_hd__decap_12 VGND VNB VPB VPWR
.ends

* Black-box entry subcircuit for sky130_fd_sc_hd__dfxtp_1 abstract view
.subckt sky130_fd_sc_hd__dfxtp_1 D Q CLK VGND VNB VPB VPWR
.ends

* Black-box entry subcircuit for sky130_fd_sc_hd__decap_8 abstract view
.subckt sky130_fd_sc_hd__decap_8 VGND VNB VPB VPWR
.ends

* Black-box entry subcircuit for sky130_fd_sc_hd__decap_3 abstract view
.subckt sky130_fd_sc_hd__decap_3 VGND VNB VPB VPWR
.ends

* Black-box entry subcircuit for sky130_fd_sc_hd__conb_1 abstract view
.subckt sky130_fd_sc_hd__conb_1 HI LO VGND VNB VPB VPWR
.ends

* Black-box entry subcircuit for sky130_fd_sc_hd__clkbuf_1 abstract view
.subckt sky130_fd_sc_hd__clkbuf_1 A X VGND VNB VPB VPWR
.ends

* Black-box entry subcircuit for sky130_fd_sc_hd__fill_2 abstract view
.subckt sky130_fd_sc_hd__fill_2 VGND VNB VPB VPWR
.ends

* Black-box entry subcircuit for sky130_fd_sc_hd__decap_4 abstract view
.subckt sky130_fd_sc_hd__decap_4 VGND VNB VPB VPWR
.ends

* Black-box entry subcircuit for sky130_fd_sc_hd__tapvpwrvgnd_1 abstract view
.subckt sky130_fd_sc_hd__tapvpwrvgnd_1 VGND VPWR
.ends

* Black-box entry subcircuit for sky130_fd_sc_hd__decap_6 abstract view
.subckt sky130_fd_sc_hd__decap_6 VGND VNB VPB VPWR
.ends

* Black-box entry subcircuit for sky130_fd_sc_hd__fill_1 abstract view
.subckt sky130_fd_sc_hd__fill_1 VGND VNB VPB VPWR
.ends

* Black-box entry subcircuit for sky130_fd_sc_hd__buf_4 abstract view
.subckt sky130_fd_sc_hd__buf_4 A X VGND VNB VPB VPWR
.ends

* Black-box entry subcircuit for sky130_fd_sc_hd__mux2_1 abstract view
.subckt sky130_fd_sc_hd__mux2_1 A0 A1 S X VGND VNB VPB VPWR
.ends

* Black-box entry subcircuit for sky130_fd_sc_hd__buf_2 abstract view
.subckt sky130_fd_sc_hd__buf_2 A X VGND VNB VPB VPWR
.ends

* Black-box entry subcircuit for sky130_fd_sc_hd__clkbuf_16 abstract view
.subckt sky130_fd_sc_hd__clkbuf_16 A X VGND VNB VPB VPWR
.ends

* Black-box entry subcircuit for sky130_fd_sc_hd__diode_2 abstract view
.subckt sky130_fd_sc_hd__diode_2 DIODE VGND VNB VPB VPWR
.ends

.subckt sb_8__0_ ccff_head ccff_tail chanx_left_in[0] chanx_left_in[10] chanx_left_in[11]
+ chanx_left_in[12] chanx_left_in[13] chanx_left_in[14] chanx_left_in[15] chanx_left_in[16]
+ chanx_left_in[17] chanx_left_in[18] chanx_left_in[19] chanx_left_in[1] chanx_left_in[2]
+ chanx_left_in[3] chanx_left_in[4] chanx_left_in[5] chanx_left_in[6] chanx_left_in[7]
+ chanx_left_in[8] chanx_left_in[9] chanx_left_out[0] chanx_left_out[10] chanx_left_out[11]
+ chanx_left_out[12] chanx_left_out[13] chanx_left_out[14] chanx_left_out[15] chanx_left_out[16]
+ chanx_left_out[17] chanx_left_out[18] chanx_left_out[19] chanx_left_out[1] chanx_left_out[2]
+ chanx_left_out[3] chanx_left_out[4] chanx_left_out[5] chanx_left_out[6] chanx_left_out[7]
+ chanx_left_out[8] chanx_left_out[9] chany_top_in[0] chany_top_in[10] chany_top_in[11]
+ chany_top_in[12] chany_top_in[13] chany_top_in[14] chany_top_in[15] chany_top_in[16]
+ chany_top_in[17] chany_top_in[18] chany_top_in[19] chany_top_in[1] chany_top_in[2]
+ chany_top_in[3] chany_top_in[4] chany_top_in[5] chany_top_in[6] chany_top_in[7]
+ chany_top_in[8] chany_top_in[9] chany_top_out[0] chany_top_out[10] chany_top_out[11]
+ chany_top_out[12] chany_top_out[13] chany_top_out[14] chany_top_out[15] chany_top_out[16]
+ chany_top_out[17] chany_top_out[18] chany_top_out[19] chany_top_out[1] chany_top_out[2]
+ chany_top_out[3] chany_top_out[4] chany_top_out[5] chany_top_out[6] chany_top_out[7]
+ chany_top_out[8] chany_top_out[9] left_bottom_grid_pin_11_ left_bottom_grid_pin_13_
+ left_bottom_grid_pin_15_ left_bottom_grid_pin_17_ left_bottom_grid_pin_1_ left_bottom_grid_pin_3_
+ left_bottom_grid_pin_5_ left_bottom_grid_pin_7_ left_bottom_grid_pin_9_ prog_clk
+ top_left_grid_pin_42_ top_left_grid_pin_43_ top_left_grid_pin_44_ top_left_grid_pin_45_
+ top_left_grid_pin_46_ top_left_grid_pin_47_ top_left_grid_pin_48_ top_left_grid_pin_49_
+ top_right_grid_pin_1_ VPWR VGND
XFILLER_22_199 VGND VGND VPWR VPWR sky130_fd_sc_hd__decap_12
Xmem_left_track_17.sky130_fd_sc_hd__dfxtp_1_0_ mux_left_track_15.mux_l2_in_0_/S mux_left_track_17.mux_l1_in_0_/S
+ clkbuf_3_6_0_prog_clk/X VGND VGND VPWR VPWR sky130_fd_sc_hd__dfxtp_1
XFILLER_13_144 VGND VGND VPWR VPWR sky130_fd_sc_hd__decap_8
XFILLER_9_159 VGND VGND VPWR VPWR sky130_fd_sc_hd__decap_12
XFILLER_6_129 VGND VGND VPWR VPWR sky130_fd_sc_hd__decap_12
XFILLER_12_32 VGND VGND VPWR VPWR sky130_fd_sc_hd__decap_12
XFILLER_12_76 VGND VGND VPWR VPWR sky130_fd_sc_hd__decap_3
XFILLER_5_184 VGND VGND VPWR VPWR sky130_fd_sc_hd__decap_12
X_062_ _062_/HI _062_/LO VGND VGND VPWR VPWR sky130_fd_sc_hd__conb_1
XFILLER_2_154 VGND VGND VPWR VPWR sky130_fd_sc_hd__decap_12
Xclkbuf_3_4_0_prog_clk clkbuf_2_2_0_prog_clk/X clkbuf_3_4_0_prog_clk/X VGND VGND VPWR
+ VPWR sky130_fd_sc_hd__clkbuf_1
X_045_ _045_/HI _045_/LO VGND VGND VPWR VPWR sky130_fd_sc_hd__conb_1
XFILLER_22_7 VGND VGND VPWR VPWR sky130_fd_sc_hd__fill_2
XFILLER_29_139 VGND VGND VPWR VPWR sky130_fd_sc_hd__fill_2
XFILLER_29_41 VGND VGND VPWR VPWR sky130_fd_sc_hd__fill_2
XFILLER_20_54 VGND VGND VPWR VPWR sky130_fd_sc_hd__fill_2
XFILLER_6_56 VGND VGND VPWR VPWR sky130_fd_sc_hd__decap_12
XFILLER_13_3 VGND VGND VPWR VPWR sky130_fd_sc_hd__decap_4
XFILLER_15_43 VGND VGND VPWR VPWR sky130_fd_sc_hd__fill_2
XFILLER_1_208 VGND VGND VPWR VPWR sky130_fd_sc_hd__decap_12
XPHY_181 VGND VPWR sky130_fd_sc_hd__tapvpwrvgnd_1
XFILLER_31_156 VGND VGND VPWR VPWR sky130_fd_sc_hd__decap_6
XFILLER_31_145 VGND VGND VPWR VPWR sky130_fd_sc_hd__fill_2
XFILLER_31_123 VGND VGND VPWR VPWR sky130_fd_sc_hd__decap_4
XFILLER_31_112 VGND VGND VPWR VPWR sky130_fd_sc_hd__fill_1
XFILLER_31_86 VGND VGND VPWR VPWR sky130_fd_sc_hd__fill_2
XPHY_170 VGND VPWR sky130_fd_sc_hd__tapvpwrvgnd_1
XFILLER_22_101 VGND VGND VPWR VPWR sky130_fd_sc_hd__fill_1
XFILLER_27_204 VGND VGND VPWR VPWR sky130_fd_sc_hd__decap_12
XFILLER_18_215 VGND VGND VPWR VPWR sky130_fd_sc_hd__decap_4
XFILLER_12_11 VGND VGND VPWR VPWR sky130_fd_sc_hd__decap_4
XFILLER_12_44 VGND VGND VPWR VPWR sky130_fd_sc_hd__decap_8
XFILLER_12_88 VGND VGND VPWR VPWR sky130_fd_sc_hd__decap_4
XFILLER_5_196 VGND VGND VPWR VPWR sky130_fd_sc_hd__decap_12
X_061_ _061_/HI _061_/LO VGND VGND VPWR VPWR sky130_fd_sc_hd__conb_1
XFILLER_2_166 VGND VGND VPWR VPWR sky130_fd_sc_hd__decap_12
Xmux_left_track_9.sky130_fd_sc_hd__buf_4_0_ mux_left_track_9.mux_l2_in_0_/X _083_/A
+ VGND VGND VPWR VPWR sky130_fd_sc_hd__buf_4
X_044_ _044_/HI _044_/LO VGND VGND VPWR VPWR sky130_fd_sc_hd__conb_1
XFILLER_18_32 VGND VGND VPWR VPWR sky130_fd_sc_hd__fill_2
Xmux_left_track_31.sky130_fd_sc_hd__buf_4_0_ mux_left_track_31.mux_l2_in_0_/X _072_/A
+ VGND VGND VPWR VPWR sky130_fd_sc_hd__buf_4
XFILLER_28_140 VGND VGND VPWR VPWR sky130_fd_sc_hd__fill_2
Xmux_top_track_10.mux_l2_in_0_ _042_/HI mux_top_track_10.mux_l1_in_0_/X mux_top_track_10.mux_l2_in_0_/S
+ mux_top_track_10.mux_l2_in_0_/X VGND VGND VPWR VPWR sky130_fd_sc_hd__mux2_1
Xmem_left_track_35.sky130_fd_sc_hd__dfxtp_1_1_ mux_left_track_35.mux_l1_in_0_/S mux_left_track_35.mux_l2_in_0_/S
+ clkbuf_3_2_0_prog_clk/X VGND VGND VPWR VPWR sky130_fd_sc_hd__dfxtp_1
XFILLER_28_151 VGND VGND VPWR VPWR sky130_fd_sc_hd__fill_2
XFILLER_6_68 VGND VGND VPWR VPWR sky130_fd_sc_hd__decap_12
XFILLER_25_121 VGND VGND VPWR VPWR sky130_fd_sc_hd__fill_1
XPHY_182 VGND VPWR sky130_fd_sc_hd__tapvpwrvgnd_1
XPHY_171 VGND VPWR sky130_fd_sc_hd__tapvpwrvgnd_1
XPHY_160 VGND VPWR sky130_fd_sc_hd__tapvpwrvgnd_1
XFILLER_15_88 VGND VGND VPWR VPWR sky130_fd_sc_hd__decap_8
XFILLER_22_146 VGND VGND VPWR VPWR sky130_fd_sc_hd__decap_6
Xmux_left_track_25.sky130_fd_sc_hd__buf_4_0_ mux_left_track_25.mux_l2_in_0_/X _075_/A
+ VGND VGND VPWR VPWR sky130_fd_sc_hd__buf_4
XFILLER_26_32 VGND VGND VPWR VPWR sky130_fd_sc_hd__decap_4
XFILLER_12_190 VGND VGND VPWR VPWR sky130_fd_sc_hd__decap_12
XFILLER_27_216 VGND VGND VPWR VPWR sky130_fd_sc_hd__decap_4
XFILLER_10_105 VGND VGND VPWR VPWR sky130_fd_sc_hd__decap_12
Xmux_left_track_19.sky130_fd_sc_hd__buf_4_0_ mux_left_track_19.mux_l2_in_0_/X _078_/A
+ VGND VGND VPWR VPWR sky130_fd_sc_hd__buf_4
Xmux_left_track_7.mux_l3_in_0_ mux_left_track_7.mux_l2_in_1_/X mux_left_track_7.mux_l2_in_0_/X
+ mux_left_track_7.mux_l3_in_0_/S mux_left_track_7.mux_l3_in_0_/X VGND VGND VPWR VPWR
+ sky130_fd_sc_hd__mux2_1
XFILLER_24_219 VGND VGND VPWR VPWR sky130_fd_sc_hd__fill_1
X_060_ _060_/HI _060_/LO VGND VGND VPWR VPWR sky130_fd_sc_hd__conb_1
XFILLER_23_55 VGND VGND VPWR VPWR sky130_fd_sc_hd__decap_6
Xmem_top_track_10.sky130_fd_sc_hd__dfxtp_1_1_ mux_top_track_10.mux_l1_in_0_/S mux_top_track_10.mux_l2_in_0_/S
+ clkbuf_3_4_0_prog_clk/X VGND VGND VPWR VPWR sky130_fd_sc_hd__dfxtp_1
XFILLER_3_3 VGND VGND VPWR VPWR sky130_fd_sc_hd__decap_12
XFILLER_2_178 VGND VGND VPWR VPWR sky130_fd_sc_hd__decap_12
XFILLER_0_15 VGND VGND VPWR VPWR sky130_fd_sc_hd__decap_12
XFILLER_9_35 VGND VGND VPWR VPWR sky130_fd_sc_hd__fill_2
XFILLER_18_88 VGND VGND VPWR VPWR sky130_fd_sc_hd__decap_4
X_043_ _043_/HI _043_/LO VGND VGND VPWR VPWR sky130_fd_sc_hd__conb_1
XFILLER_7_215 VGND VGND VPWR VPWR sky130_fd_sc_hd__decap_4
Xmux_left_track_7.mux_l2_in_1_ _039_/HI left_bottom_grid_pin_15_ mux_left_track_7.mux_l2_in_0_/S
+ mux_left_track_7.mux_l2_in_1_/X VGND VGND VPWR VPWR sky130_fd_sc_hd__mux2_1
XFILLER_28_163 VGND VGND VPWR VPWR sky130_fd_sc_hd__decap_8
Xmem_left_track_35.sky130_fd_sc_hd__dfxtp_1_0_ mux_left_track_33.mux_l2_in_0_/S mux_left_track_35.mux_l1_in_0_/S
+ clkbuf_3_2_0_prog_clk/X VGND VGND VPWR VPWR sky130_fd_sc_hd__dfxtp_1
XFILLER_25_166 VGND VGND VPWR VPWR sky130_fd_sc_hd__decap_12
XFILLER_15_78 VGND VGND VPWR VPWR sky130_fd_sc_hd__fill_2
XPHY_183 VGND VPWR sky130_fd_sc_hd__tapvpwrvgnd_1
XFILLER_31_169 VGND VGND VPWR VPWR sky130_fd_sc_hd__fill_2
XPHY_172 VGND VPWR sky130_fd_sc_hd__tapvpwrvgnd_1
XPHY_161 VGND VPWR sky130_fd_sc_hd__tapvpwrvgnd_1
Xclkbuf_2_1_0_prog_clk clkbuf_2_1_0_prog_clk/A clkbuf_3_3_0_prog_clk/A VGND VGND VPWR
+ VPWR sky130_fd_sc_hd__clkbuf_1
XPHY_150 VGND VPWR sky130_fd_sc_hd__tapvpwrvgnd_1
XFILLER_26_66 VGND VGND VPWR VPWR sky130_fd_sc_hd__fill_1
Xmux_top_track_22.mux_l2_in_0_ _049_/HI mux_top_track_22.mux_l1_in_0_/X mux_top_track_22.mux_l2_in_0_/S
+ mux_top_track_22.mux_l2_in_0_/X VGND VGND VPWR VPWR sky130_fd_sc_hd__mux2_1
Xmux_top_track_10.mux_l1_in_0_ chanx_left_in[15] top_left_grid_pin_43_ mux_top_track_10.mux_l1_in_0_/S
+ mux_top_track_10.mux_l1_in_0_/X VGND VGND VPWR VPWR sky130_fd_sc_hd__mux2_1
XFILLER_3_59 VGND VGND VPWR VPWR sky130_fd_sc_hd__fill_2
XFILLER_3_15 VGND VGND VPWR VPWR sky130_fd_sc_hd__decap_12
XFILLER_10_117 VGND VGND VPWR VPWR sky130_fd_sc_hd__decap_12
XFILLER_12_24 VGND VGND VPWR VPWR sky130_fd_sc_hd__decap_6
XFILLER_12_68 VGND VGND VPWR VPWR sky130_fd_sc_hd__decap_8
Xmux_left_track_15.mux_l2_in_0_ _058_/HI mux_left_track_15.mux_l1_in_0_/X mux_left_track_15.mux_l2_in_0_/S
+ mux_left_track_15.mux_l2_in_0_/X VGND VGND VPWR VPWR sky130_fd_sc_hd__mux2_1
XFILLER_5_110 VGND VGND VPWR VPWR sky130_fd_sc_hd__decap_12
XFILLER_4_80 VGND VGND VPWR VPWR sky130_fd_sc_hd__decap_12
XFILLER_23_67 VGND VGND VPWR VPWR sky130_fd_sc_hd__decap_12
Xmem_top_track_10.sky130_fd_sc_hd__dfxtp_1_0_ mux_top_track_8.mux_l2_in_0_/S mux_top_track_10.mux_l1_in_0_/S
+ clkbuf_3_4_0_prog_clk/X VGND VGND VPWR VPWR sky130_fd_sc_hd__dfxtp_1
XFILLER_0_27 VGND VGND VPWR VPWR sky130_fd_sc_hd__decap_4
X_042_ _042_/HI _042_/LO VGND VGND VPWR VPWR sky130_fd_sc_hd__conb_1
Xmux_left_track_7.mux_l2_in_0_ mux_left_track_7.mux_l1_in_1_/X mux_left_track_7.mux_l1_in_0_/X
+ mux_left_track_7.mux_l2_in_0_/S mux_left_track_7.mux_l2_in_0_/X VGND VGND VPWR VPWR
+ sky130_fd_sc_hd__mux2_1
Xmux_top_track_0.mux_l3_in_0_ mux_top_track_0.mux_l2_in_1_/X mux_top_track_0.mux_l2_in_0_/X
+ mux_top_track_0.mux_l3_in_0_/S mux_top_track_0.mux_l3_in_0_/X VGND VGND VPWR VPWR
+ sky130_fd_sc_hd__mux2_1
XFILLER_4_219 VGND VGND VPWR VPWR sky130_fd_sc_hd__fill_1
XFILLER_29_99 VGND VGND VPWR VPWR sky130_fd_sc_hd__fill_1
XFILLER_29_33 VGND VGND VPWR VPWR sky130_fd_sc_hd__decap_8
Xclkbuf_3_3_0_prog_clk clkbuf_3_3_0_prog_clk/A clkbuf_3_3_0_prog_clk/X VGND VGND VPWR
+ VPWR sky130_fd_sc_hd__clkbuf_1
XFILLER_6_15 VGND VGND VPWR VPWR sky130_fd_sc_hd__decap_12
Xmem_top_track_16.sky130_fd_sc_hd__dfxtp_1_1_ mux_top_track_16.mux_l1_in_0_/S mux_top_track_16.mux_l2_in_0_/S
+ clkbuf_3_7_0_prog_clk/X VGND VGND VPWR VPWR sky130_fd_sc_hd__dfxtp_1
XFILLER_20_7 VGND VGND VPWR VPWR sky130_fd_sc_hd__fill_2
XFILLER_31_78 VGND VGND VPWR VPWR sky130_fd_sc_hd__decap_4
XFILLER_25_178 VGND VGND VPWR VPWR sky130_fd_sc_hd__decap_4
XFILLER_15_68 VGND VGND VPWR VPWR sky130_fd_sc_hd__fill_1
XFILLER_15_35 VGND VGND VPWR VPWR sky130_fd_sc_hd__decap_8
XFILLER_15_24 VGND VGND VPWR VPWR sky130_fd_sc_hd__fill_2
XFILLER_15_13 VGND VGND VPWR VPWR sky130_fd_sc_hd__fill_2
XFILLER_0_211 VGND VGND VPWR VPWR sky130_fd_sc_hd__decap_6
Xmux_left_track_7.mux_l1_in_1_ left_bottom_grid_pin_11_ left_bottom_grid_pin_7_ mux_left_track_7.mux_l1_in_0_/S
+ mux_left_track_7.mux_l1_in_1_/X VGND VGND VPWR VPWR sky130_fd_sc_hd__mux2_1
XPHY_184 VGND VPWR sky130_fd_sc_hd__tapvpwrvgnd_1
XFILLER_31_104 VGND VGND VPWR VPWR sky130_fd_sc_hd__decap_8
XPHY_173 VGND VPWR sky130_fd_sc_hd__tapvpwrvgnd_1
XPHY_162 VGND VPWR sky130_fd_sc_hd__tapvpwrvgnd_1
XPHY_151 VGND VPWR sky130_fd_sc_hd__tapvpwrvgnd_1
XPHY_140 VGND VPWR sky130_fd_sc_hd__tapvpwrvgnd_1
Xmux_top_track_0.mux_l2_in_1_ _041_/HI mux_top_track_0.mux_l1_in_2_/X mux_top_track_0.mux_l2_in_0_/S
+ mux_top_track_0.mux_l2_in_1_/X VGND VGND VPWR VPWR sky130_fd_sc_hd__mux2_1
XFILLER_11_3 VGND VGND VPWR VPWR sky130_fd_sc_hd__decap_4
Xmux_top_track_22.sky130_fd_sc_hd__buf_4_0_ mux_top_track_22.mux_l2_in_0_/X _096_/A
+ VGND VGND VPWR VPWR sky130_fd_sc_hd__buf_4
XFILLER_3_27 VGND VGND VPWR VPWR sky130_fd_sc_hd__decap_12
XFILLER_9_108 VGND VGND VPWR VPWR sky130_fd_sc_hd__decap_12
XFILLER_8_141 VGND VGND VPWR VPWR sky130_fd_sc_hd__decap_12
XFILLER_10_129 VGND VGND VPWR VPWR sky130_fd_sc_hd__decap_12
Xmux_top_track_0.mux_l1_in_2_ chanx_left_in[0] top_right_grid_pin_1_ mux_top_track_0.mux_l1_in_1_/S
+ mux_top_track_0.mux_l1_in_2_/X VGND VGND VPWR VPWR sky130_fd_sc_hd__mux2_1
Xmux_top_track_16.sky130_fd_sc_hd__buf_4_0_ mux_top_track_16.mux_l2_in_0_/X _099_/A
+ VGND VGND VPWR VPWR sky130_fd_sc_hd__buf_4
Xmux_top_track_22.mux_l1_in_0_ chanx_left_in[9] top_left_grid_pin_49_ mux_top_track_22.mux_l1_in_0_/S
+ mux_top_track_22.mux_l1_in_0_/X VGND VGND VPWR VPWR sky130_fd_sc_hd__mux2_1
XFILLER_23_79 VGND VGND VPWR VPWR sky130_fd_sc_hd__fill_1
XFILLER_9_59 VGND VGND VPWR VPWR sky130_fd_sc_hd__fill_2
Xmux_left_track_15.mux_l1_in_0_ left_bottom_grid_pin_7_ chany_top_in[13] mux_left_track_15.mux_l1_in_0_/S
+ mux_left_track_15.mux_l1_in_0_/X VGND VGND VPWR VPWR sky130_fd_sc_hd__mux2_1
XFILLER_18_68 VGND VGND VPWR VPWR sky130_fd_sc_hd__decap_4
XFILLER_18_24 VGND VGND VPWR VPWR sky130_fd_sc_hd__fill_2
Xmux_left_track_27.mux_l2_in_0_ _064_/HI mux_left_track_27.mux_l1_in_0_/X mux_left_track_27.mux_l2_in_0_/S
+ mux_left_track_27.mux_l2_in_0_/X VGND VGND VPWR VPWR sky130_fd_sc_hd__mux2_1
X_041_ _041_/HI _041_/LO VGND VGND VPWR VPWR sky130_fd_sc_hd__conb_1
XFILLER_28_132 VGND VGND VPWR VPWR sky130_fd_sc_hd__decap_8
XFILLER_28_110 VGND VGND VPWR VPWR sky130_fd_sc_hd__decap_12
Xmem_top_track_16.sky130_fd_sc_hd__dfxtp_1_0_ mux_top_track_14.mux_l2_in_0_/S mux_top_track_16.mux_l1_in_0_/S
+ clkbuf_3_5_0_prog_clk/X VGND VGND VPWR VPWR sky130_fd_sc_hd__dfxtp_1
XFILLER_19_143 VGND VGND VPWR VPWR sky130_fd_sc_hd__fill_2
XFILLER_19_132 VGND VGND VPWR VPWR sky130_fd_sc_hd__fill_2
XFILLER_6_27 VGND VGND VPWR VPWR sky130_fd_sc_hd__decap_4
Xmux_top_track_0.sky130_fd_sc_hd__buf_4_0_ mux_top_track_0.mux_l3_in_0_/X _107_/A
+ VGND VGND VPWR VPWR sky130_fd_sc_hd__buf_4
Xmux_left_track_7.mux_l1_in_0_ left_bottom_grid_pin_3_ chany_top_in[17] mux_left_track_7.mux_l1_in_0_/S
+ mux_left_track_7.mux_l1_in_0_/X VGND VGND VPWR VPWR sky130_fd_sc_hd__mux2_1
XPHY_185 VGND VPWR sky130_fd_sc_hd__tapvpwrvgnd_1
XFILLER_31_127 VGND VGND VPWR VPWR sky130_fd_sc_hd__fill_1
XPHY_174 VGND VPWR sky130_fd_sc_hd__tapvpwrvgnd_1
XPHY_163 VGND VPWR sky130_fd_sc_hd__tapvpwrvgnd_1
XPHY_152 VGND VPWR sky130_fd_sc_hd__tapvpwrvgnd_1
XFILLER_21_90 VGND VGND VPWR VPWR sky130_fd_sc_hd__decap_8
XPHY_141 VGND VPWR sky130_fd_sc_hd__tapvpwrvgnd_1
Xmux_top_track_0.mux_l2_in_0_ mux_top_track_0.mux_l1_in_1_/X mux_top_track_0.mux_l1_in_0_/X
+ mux_top_track_0.mux_l2_in_0_/S mux_top_track_0.mux_l2_in_0_/X VGND VGND VPWR VPWR
+ sky130_fd_sc_hd__mux2_1
XPHY_130 VGND VPWR sky130_fd_sc_hd__tapvpwrvgnd_1
XFILLER_30_171 VGND VGND VPWR VPWR sky130_fd_sc_hd__fill_2
XFILLER_26_57 VGND VGND VPWR VPWR sky130_fd_sc_hd__fill_2
XFILLER_26_46 VGND VGND VPWR VPWR sky130_fd_sc_hd__fill_2
XFILLER_21_193 VGND VGND VPWR VPWR sky130_fd_sc_hd__decap_12
XFILLER_21_182 VGND VGND VPWR VPWR sky130_fd_sc_hd__fill_1
XFILLER_21_160 VGND VGND VPWR VPWR sky130_fd_sc_hd__fill_2
XFILLER_3_39 VGND VGND VPWR VPWR sky130_fd_sc_hd__decap_12
XFILLER_16_90 VGND VGND VPWR VPWR sky130_fd_sc_hd__fill_2
Xmux_top_track_0.mux_l1_in_1_ top_left_grid_pin_48_ top_left_grid_pin_46_ mux_top_track_0.mux_l1_in_1_/S
+ mux_top_track_0.mux_l1_in_1_/X VGND VGND VPWR VPWR sky130_fd_sc_hd__mux2_1
XFILLER_18_219 VGND VGND VPWR VPWR sky130_fd_sc_hd__fill_1
Xmem_left_track_21.sky130_fd_sc_hd__dfxtp_1_1_ mux_left_track_21.mux_l1_in_0_/S mux_left_track_21.mux_l2_in_0_/S
+ clkbuf_3_3_0_prog_clk/X VGND VGND VPWR VPWR sky130_fd_sc_hd__dfxtp_1
XFILLER_5_123 VGND VGND VPWR VPWR sky130_fd_sc_hd__decap_12
XFILLER_23_25 VGND VGND VPWR VPWR sky130_fd_sc_hd__decap_12
XFILLER_23_14 VGND VGND VPWR VPWR sky130_fd_sc_hd__fill_2
XFILLER_4_93 VGND VGND VPWR VPWR sky130_fd_sc_hd__decap_12
X_040_ _040_/HI _040_/LO VGND VGND VPWR VPWR sky130_fd_sc_hd__conb_1
XFILLER_1_3 VGND VGND VPWR VPWR sky130_fd_sc_hd__decap_12
XFILLER_28_188 VGND VGND VPWR VPWR sky130_fd_sc_hd__decap_12
XFILLER_28_122 VGND VGND VPWR VPWR sky130_fd_sc_hd__fill_1
XFILLER_20_26 VGND VGND VPWR VPWR sky130_fd_sc_hd__decap_4
XFILLER_20_15 VGND VGND VPWR VPWR sky130_fd_sc_hd__fill_2
Xmux_left_track_27.mux_l1_in_0_ left_bottom_grid_pin_3_ chany_top_in[7] mux_left_track_27.mux_l1_in_0_/S
+ mux_left_track_27.mux_l1_in_0_/X VGND VGND VPWR VPWR sky130_fd_sc_hd__mux2_1
XFILLER_15_48 VGND VGND VPWR VPWR sky130_fd_sc_hd__fill_2
XPHY_186 VGND VPWR sky130_fd_sc_hd__tapvpwrvgnd_1
XFILLER_31_117 VGND VGND VPWR VPWR sky130_fd_sc_hd__decap_4
XPHY_175 VGND VPWR sky130_fd_sc_hd__tapvpwrvgnd_1
XPHY_164 VGND VPWR sky130_fd_sc_hd__tapvpwrvgnd_1
XPHY_153 VGND VPWR sky130_fd_sc_hd__tapvpwrvgnd_1
XPHY_142 VGND VPWR sky130_fd_sc_hd__tapvpwrvgnd_1
Xmux_left_track_39.mux_l2_in_0_ _037_/HI mux_left_track_39.mux_l1_in_0_/X ccff_tail
+ mux_left_track_39.mux_l2_in_0_/X VGND VGND VPWR VPWR sky130_fd_sc_hd__mux2_1
XPHY_131 VGND VPWR sky130_fd_sc_hd__tapvpwrvgnd_1
XPHY_120 VGND VPWR sky130_fd_sc_hd__tapvpwrvgnd_1
XFILLER_22_128 VGND VGND VPWR VPWR sky130_fd_sc_hd__fill_2
XPHY_0 VGND VGND VPWR VPWR sky130_fd_sc_hd__decap_3
XFILLER_26_36 VGND VGND VPWR VPWR sky130_fd_sc_hd__fill_1
XFILLER_21_150 VGND VGND VPWR VPWR sky130_fd_sc_hd__fill_1
XFILLER_8_154 VGND VGND VPWR VPWR sky130_fd_sc_hd__decap_12
Xmem_left_track_21.sky130_fd_sc_hd__dfxtp_1_0_ mux_left_track_19.mux_l2_in_0_/S mux_left_track_21.mux_l1_in_0_/S
+ clkbuf_3_3_0_prog_clk/X VGND VGND VPWR VPWR sky130_fd_sc_hd__dfxtp_1
Xmux_top_track_0.mux_l1_in_0_ top_left_grid_pin_44_ top_left_grid_pin_42_ mux_top_track_0.mux_l1_in_1_/S
+ mux_top_track_0.mux_l1_in_0_/X VGND VGND VPWR VPWR sky130_fd_sc_hd__mux2_1
Xclkbuf_2_0_0_prog_clk clkbuf_2_1_0_prog_clk/A clkbuf_2_0_0_prog_clk/X VGND VGND VPWR
+ VPWR sky130_fd_sc_hd__clkbuf_1
XFILLER_5_135 VGND VGND VPWR VPWR sky130_fd_sc_hd__decap_12
XFILLER_23_37 VGND VGND VPWR VPWR sky130_fd_sc_hd__fill_2
XFILLER_4_190 VGND VGND VPWR VPWR sky130_fd_sc_hd__decap_12
XFILLER_2_105 VGND VGND VPWR VPWR sky130_fd_sc_hd__decap_12
XFILLER_9_17 VGND VGND VPWR VPWR sky130_fd_sc_hd__fill_2
XFILLER_20_215 VGND VGND VPWR VPWR sky130_fd_sc_hd__decap_4
XFILLER_1_171 VGND VGND VPWR VPWR sky130_fd_sc_hd__decap_12
XFILLER_7_208 VGND VGND VPWR VPWR sky130_fd_sc_hd__decap_3
XFILLER_7_219 VGND VGND VPWR VPWR sky130_fd_sc_hd__fill_1
X_099_ _099_/A chany_top_out[8] VGND VGND VPWR VPWR sky130_fd_sc_hd__buf_2
XFILLER_27_3 VGND VGND VPWR VPWR sky130_fd_sc_hd__fill_1
XFILLER_24_91 VGND VGND VPWR VPWR sky130_fd_sc_hd__fill_1
Xmem_left_track_27.sky130_fd_sc_hd__dfxtp_1_1_ mux_left_track_27.mux_l1_in_0_/S mux_left_track_27.mux_l2_in_0_/S
+ clkbuf_3_2_0_prog_clk/X VGND VGND VPWR VPWR sky130_fd_sc_hd__dfxtp_1
XFILLER_1_62 VGND VGND VPWR VPWR sky130_fd_sc_hd__decap_12
XFILLER_1_51 VGND VGND VPWR VPWR sky130_fd_sc_hd__decap_8
XFILLER_10_93 VGND VGND VPWR VPWR sky130_fd_sc_hd__decap_12
XPHY_187 VGND VPWR sky130_fd_sc_hd__tapvpwrvgnd_1
XFILLER_31_59 VGND VGND VPWR VPWR sky130_fd_sc_hd__fill_2
XFILLER_31_37 VGND VGND VPWR VPWR sky130_fd_sc_hd__decap_6
XPHY_176 VGND VPWR sky130_fd_sc_hd__tapvpwrvgnd_1
XPHY_165 VGND VPWR sky130_fd_sc_hd__tapvpwrvgnd_1
XPHY_154 VGND VPWR sky130_fd_sc_hd__tapvpwrvgnd_1
XPHY_143 VGND VPWR sky130_fd_sc_hd__tapvpwrvgnd_1
XPHY_132 VGND VPWR sky130_fd_sc_hd__tapvpwrvgnd_1
XPHY_121 VGND VPWR sky130_fd_sc_hd__tapvpwrvgnd_1
XPHY_110 VGND VPWR sky130_fd_sc_hd__tapvpwrvgnd_1
XFILLER_30_195 VGND VGND VPWR VPWR sky130_fd_sc_hd__decap_12
XFILLER_30_162 VGND VGND VPWR VPWR sky130_fd_sc_hd__decap_3
XFILLER_30_151 VGND VGND VPWR VPWR sky130_fd_sc_hd__fill_2
XFILLER_22_118 VGND VGND VPWR VPWR sky130_fd_sc_hd__decap_4
XPHY_1 VGND VGND VPWR VPWR sky130_fd_sc_hd__decap_3
Xclkbuf_3_2_0_prog_clk clkbuf_3_3_0_prog_clk/A clkbuf_3_2_0_prog_clk/X VGND VGND VPWR
+ VPWR sky130_fd_sc_hd__clkbuf_1
XFILLER_32_91 VGND VGND VPWR VPWR sky130_fd_sc_hd__fill_2
XFILLER_8_166 VGND VGND VPWR VPWR sky130_fd_sc_hd__decap_12
Xmux_left_track_39.mux_l1_in_0_ left_bottom_grid_pin_15_ chany_top_in[1] mux_left_track_39.mux_l1_in_0_/S
+ mux_left_track_39.mux_l1_in_0_/X VGND VGND VPWR VPWR sky130_fd_sc_hd__mux2_1
XFILLER_5_147 VGND VGND VPWR VPWR sky130_fd_sc_hd__decap_12
XFILLER_14_202 VGND VGND VPWR VPWR sky130_fd_sc_hd__decap_12
XFILLER_2_117 VGND VGND VPWR VPWR sky130_fd_sc_hd__decap_12
XFILLER_29_7 VGND VGND VPWR VPWR sky130_fd_sc_hd__fill_2
XFILLER_13_71 VGND VGND VPWR VPWR sky130_fd_sc_hd__decap_8
XFILLER_18_16 VGND VGND VPWR VPWR sky130_fd_sc_hd__fill_2
X_098_ _098_/A chany_top_out[9] VGND VGND VPWR VPWR sky130_fd_sc_hd__buf_2
XFILLER_29_15 VGND VGND VPWR VPWR sky130_fd_sc_hd__fill_2
Xmem_left_track_27.sky130_fd_sc_hd__dfxtp_1_0_ mux_left_track_25.mux_l2_in_0_/S mux_left_track_27.mux_l1_in_0_/S
+ clkbuf_3_0_0_prog_clk/X VGND VGND VPWR VPWR sky130_fd_sc_hd__dfxtp_1
XFILLER_1_74 VGND VGND VPWR VPWR sky130_fd_sc_hd__decap_12
XFILLER_29_59 VGND VGND VPWR VPWR sky130_fd_sc_hd__fill_2
XPHY_100 VGND VPWR sky130_fd_sc_hd__tapvpwrvgnd_1
XPHY_177 VGND VPWR sky130_fd_sc_hd__tapvpwrvgnd_1
XFILLER_30_130 VGND VGND VPWR VPWR sky130_fd_sc_hd__decap_4
XPHY_166 VGND VPWR sky130_fd_sc_hd__tapvpwrvgnd_1
XPHY_155 VGND VPWR sky130_fd_sc_hd__tapvpwrvgnd_1
XPHY_144 VGND VPWR sky130_fd_sc_hd__tapvpwrvgnd_1
XFILLER_21_71 VGND VGND VPWR VPWR sky130_fd_sc_hd__decap_3
XPHY_133 VGND VPWR sky130_fd_sc_hd__tapvpwrvgnd_1
XFILLER_15_182 VGND VGND VPWR VPWR sky130_fd_sc_hd__fill_1
XFILLER_15_160 VGND VGND VPWR VPWR sky130_fd_sc_hd__decap_4
XPHY_122 VGND VPWR sky130_fd_sc_hd__tapvpwrvgnd_1
XPHY_2 VGND VGND VPWR VPWR sky130_fd_sc_hd__decap_3
XPHY_111 VGND VPWR sky130_fd_sc_hd__tapvpwrvgnd_1
XFILLER_13_108 VGND VGND VPWR VPWR sky130_fd_sc_hd__decap_12
XFILLER_7_51 VGND VGND VPWR VPWR sky130_fd_sc_hd__decap_8
XFILLER_7_62 VGND VGND VPWR VPWR sky130_fd_sc_hd__decap_3
Xmux_left_track_5.sky130_fd_sc_hd__buf_4_0_ mux_left_track_5.mux_l3_in_0_/X _085_/A
+ VGND VGND VPWR VPWR sky130_fd_sc_hd__buf_4
XFILLER_32_81 VGND VGND VPWR VPWR sky130_fd_sc_hd__fill_1
XFILLER_16_93 VGND VGND VPWR VPWR sky130_fd_sc_hd__fill_1
XFILLER_16_82 VGND VGND VPWR VPWR sky130_fd_sc_hd__decap_8
XFILLER_16_71 VGND VGND VPWR VPWR sky130_fd_sc_hd__fill_2
XFILLER_8_178 VGND VGND VPWR VPWR sky130_fd_sc_hd__decap_12
XFILLER_12_141 VGND VGND VPWR VPWR sky130_fd_sc_hd__decap_12
XFILLER_5_159 VGND VGND VPWR VPWR sky130_fd_sc_hd__decap_12
Xmem_left_track_1.sky130_fd_sc_hd__dfxtp_1_2_ mux_left_track_1.mux_l2_in_0_/S mux_left_track_1.mux_l3_in_0_/S
+ clkbuf_3_0_0_prog_clk/X VGND VGND VPWR VPWR sky130_fd_sc_hd__dfxtp_1
XFILLER_32_203 VGND VGND VPWR VPWR sky130_fd_sc_hd__decap_12
XFILLER_27_70 VGND VGND VPWR VPWR sky130_fd_sc_hd__fill_1
XFILLER_2_129 VGND VGND VPWR VPWR sky130_fd_sc_hd__decap_12
Xmux_left_track_21.sky130_fd_sc_hd__buf_4_0_ mux_left_track_21.mux_l2_in_0_/X _077_/A
+ VGND VGND VPWR VPWR sky130_fd_sc_hd__buf_4
XFILLER_1_184 VGND VGND VPWR VPWR sky130_fd_sc_hd__decap_12
X_097_ _097_/A chany_top_out[10] VGND VGND VPWR VPWR sky130_fd_sc_hd__buf_2
XFILLER_1_86 VGND VGND VPWR VPWR sky130_fd_sc_hd__decap_12
Xmem_top_track_4.sky130_fd_sc_hd__dfxtp_1_2_ mux_top_track_4.mux_l2_in_1_/S mux_top_track_4.mux_l3_in_0_/S
+ clkbuf_3_6_0_prog_clk/X VGND VGND VPWR VPWR sky130_fd_sc_hd__dfxtp_1
Xmux_left_track_15.sky130_fd_sc_hd__buf_4_0_ mux_left_track_15.mux_l2_in_0_/X _080_/A
+ VGND VGND VPWR VPWR sky130_fd_sc_hd__buf_4
XFILLER_32_3 VGND VGND VPWR VPWR sky130_fd_sc_hd__decap_4
XFILLER_31_17 VGND VGND VPWR VPWR sky130_fd_sc_hd__decap_4
XFILLER_25_139 VGND VGND VPWR VPWR sky130_fd_sc_hd__fill_2
XFILLER_25_117 VGND VGND VPWR VPWR sky130_fd_sc_hd__decap_4
XFILLER_25_106 VGND VGND VPWR VPWR sky130_fd_sc_hd__fill_2
XPHY_178 VGND VPWR sky130_fd_sc_hd__tapvpwrvgnd_1
XPHY_167 VGND VPWR sky130_fd_sc_hd__tapvpwrvgnd_1
XPHY_156 VGND VPWR sky130_fd_sc_hd__tapvpwrvgnd_1
XFILLER_24_183 VGND VGND VPWR VPWR sky130_fd_sc_hd__fill_1
XFILLER_24_150 VGND VGND VPWR VPWR sky130_fd_sc_hd__decap_3
XPHY_145 VGND VPWR sky130_fd_sc_hd__tapvpwrvgnd_1
XPHY_134 VGND VPWR sky130_fd_sc_hd__tapvpwrvgnd_1
XPHY_123 VGND VPWR sky130_fd_sc_hd__tapvpwrvgnd_1
XPHY_101 VGND VPWR sky130_fd_sc_hd__tapvpwrvgnd_1
XPHY_112 VGND VPWR sky130_fd_sc_hd__tapvpwrvgnd_1
XFILLER_26_17 VGND VGND VPWR VPWR sky130_fd_sc_hd__decap_12
XPHY_3 VGND VGND VPWR VPWR sky130_fd_sc_hd__decap_3
XFILLER_7_74 VGND VGND VPWR VPWR sky130_fd_sc_hd__decap_12
Xmux_left_track_3.mux_l3_in_0_ mux_left_track_3.mux_l2_in_1_/X mux_left_track_3.mux_l2_in_0_/X
+ mux_left_track_3.mux_l3_in_0_/S mux_left_track_3.mux_l3_in_0_/X VGND VGND VPWR VPWR
+ sky130_fd_sc_hd__mux2_1
XFILLER_16_61 VGND VGND VPWR VPWR sky130_fd_sc_hd__fill_1
Xmem_left_track_1.sky130_fd_sc_hd__dfxtp_1_1_ mux_left_track_1.mux_l1_in_0_/S mux_left_track_1.mux_l2_in_0_/S
+ clkbuf_3_0_0_prog_clk/X VGND VGND VPWR VPWR sky130_fd_sc_hd__dfxtp_1
XFILLER_32_215 VGND VGND VPWR VPWR sky130_fd_sc_hd__fill_2
XFILLER_27_60 VGND VGND VPWR VPWR sky130_fd_sc_hd__fill_1
Xmux_left_track_3.mux_l2_in_1_ _066_/HI left_bottom_grid_pin_15_ mux_left_track_3.mux_l2_in_0_/S
+ mux_left_track_3.mux_l2_in_1_/X VGND VGND VPWR VPWR sky130_fd_sc_hd__mux2_1
XFILLER_14_215 VGND VGND VPWR VPWR sky130_fd_sc_hd__decap_4
XFILLER_1_196 VGND VGND VPWR VPWR sky130_fd_sc_hd__decap_12
XFILLER_18_29 VGND VGND VPWR VPWR sky130_fd_sc_hd__fill_2
X_096_ _096_/A chany_top_out[11] VGND VGND VPWR VPWR sky130_fd_sc_hd__buf_2
Xmux_top_track_16.mux_l2_in_0_ _045_/HI mux_top_track_16.mux_l1_in_0_/X mux_top_track_16.mux_l2_in_0_/S
+ mux_top_track_16.mux_l2_in_0_/X VGND VGND VPWR VPWR sky130_fd_sc_hd__mux2_1
Xmem_left_track_7.sky130_fd_sc_hd__dfxtp_1_2_ mux_left_track_7.mux_l2_in_0_/S mux_left_track_7.mux_l3_in_0_/S
+ clkbuf_3_0_0_prog_clk/X VGND VGND VPWR VPWR sky130_fd_sc_hd__dfxtp_1
XFILLER_1_98 VGND VGND VPWR VPWR sky130_fd_sc_hd__decap_12
Xmem_top_track_4.sky130_fd_sc_hd__dfxtp_1_1_ mux_top_track_4.mux_l1_in_1_/S mux_top_track_4.mux_l2_in_1_/S
+ clkbuf_3_6_0_prog_clk/X VGND VGND VPWR VPWR sky130_fd_sc_hd__dfxtp_1
XFILLER_27_181 VGND VGND VPWR VPWR sky130_fd_sc_hd__fill_2
XFILLER_19_148 VGND VGND VPWR VPWR sky130_fd_sc_hd__decap_6
XFILLER_10_30 VGND VGND VPWR VPWR sky130_fd_sc_hd__fill_1
XFILLER_10_52 VGND VGND VPWR VPWR sky130_fd_sc_hd__decap_6
X_079_ _079_/A chanx_left_out[8] VGND VGND VPWR VPWR sky130_fd_sc_hd__buf_2
XFILLER_18_170 VGND VGND VPWR VPWR sky130_fd_sc_hd__decap_8
XPHY_179 VGND VPWR sky130_fd_sc_hd__tapvpwrvgnd_1
XPHY_168 VGND VPWR sky130_fd_sc_hd__tapvpwrvgnd_1
Xmem_top_track_20.sky130_fd_sc_hd__dfxtp_1_1_ mux_top_track_20.mux_l1_in_0_/S mux_top_track_20.mux_l2_in_0_/S
+ clkbuf_3_7_0_prog_clk/X VGND VGND VPWR VPWR sky130_fd_sc_hd__dfxtp_1
XPHY_157 VGND VPWR sky130_fd_sc_hd__tapvpwrvgnd_1
Xmux_left_track_37.sky130_fd_sc_hd__buf_4_0_ mux_left_track_37.mux_l2_in_0_/X _069_/A
+ VGND VGND VPWR VPWR sky130_fd_sc_hd__buf_4
XPHY_146 VGND VPWR sky130_fd_sc_hd__tapvpwrvgnd_1
Xmux_left_track_11.mux_l2_in_0_ _056_/HI mux_left_track_11.mux_l1_in_0_/X mux_left_track_11.mux_l2_in_0_/S
+ mux_left_track_11.mux_l2_in_0_/X VGND VGND VPWR VPWR sky130_fd_sc_hd__mux2_1
XPHY_135 VGND VPWR sky130_fd_sc_hd__tapvpwrvgnd_1
XPHY_124 VGND VPWR sky130_fd_sc_hd__tapvpwrvgnd_1
XPHY_102 VGND VPWR sky130_fd_sc_hd__tapvpwrvgnd_1
XPHY_113 VGND VPWR sky130_fd_sc_hd__tapvpwrvgnd_1
XFILLER_30_187 VGND VGND VPWR VPWR sky130_fd_sc_hd__fill_2
XFILLER_30_154 VGND VGND VPWR VPWR sky130_fd_sc_hd__fill_2
XPHY_4 VGND VGND VPWR VPWR sky130_fd_sc_hd__decap_3
XFILLER_7_86 VGND VGND VPWR VPWR sky130_fd_sc_hd__decap_12
XFILLER_26_29 VGND VGND VPWR VPWR sky130_fd_sc_hd__fill_2
XFILLER_32_94 VGND VGND VPWR VPWR sky130_fd_sc_hd__decap_8
XFILLER_32_61 VGND VGND VPWR VPWR sky130_fd_sc_hd__fill_1
XFILLER_12_154 VGND VGND VPWR VPWR sky130_fd_sc_hd__decap_12
XFILLER_26_213 VGND VGND VPWR VPWR sky130_fd_sc_hd__fill_1
Xmem_left_track_13.sky130_fd_sc_hd__dfxtp_1_1_ mux_left_track_13.mux_l1_in_0_/S mux_left_track_13.mux_l2_in_0_/S
+ clkbuf_3_3_0_prog_clk/X VGND VGND VPWR VPWR sky130_fd_sc_hd__dfxtp_1
Xmem_left_track_1.sky130_fd_sc_hd__dfxtp_1_0_ mux_top_track_26.mux_l2_in_0_/S mux_left_track_1.mux_l1_in_0_/S
+ clkbuf_3_5_0_prog_clk/X VGND VGND VPWR VPWR sky130_fd_sc_hd__dfxtp_1
Xmux_left_track_3.mux_l2_in_0_ mux_left_track_3.mux_l1_in_1_/X mux_left_track_3.mux_l1_in_0_/X